                                  MODFLOW-NWT-SWR1 
      U.S. GEOLOGICAL SURVEY MODULAR FINITE-DIFFERENCE GROUNDWATER-FLOW MODEL
                            VERSION 1.1.0, 9/11/2015
                    BASED ON MODFLOW-2005 VERSION 1.11.00 08/30/2013

 LIST FILE: D:\workspace\noor0021\Woodforde_DFW\model_Mar12/Mar12_saturated.list
                         UNIT    2

 OPENING D:\workspace\noor0021\Woodforde_DFW\model_Mar12/Mar12_saturated.dis
 FILE TYPE:DIS   UNIT   11   STATUS:OLD    
 FORMAT:FORMATTED              ACCESS:SEQUENTIAL          

 OPENING D:\workspace\noor0021\Woodforde_DFW\model_Mar12/Mar12_saturated.nwt
 FILE TYPE:NWT   UNIT   32   STATUS:OLD    
 FORMAT:FORMATTED              ACCESS:SEQUENTIAL          

 OPENING D:\workspace\noor0021\Woodforde_DFW\model_Mar12/Mar12_saturated.bas
 FILE TYPE:BAS6   UNIT   13   STATUS:OLD    
 FORMAT:FORMATTED              ACCESS:SEQUENTIAL          

 OPENING D:\workspace\noor0021\Woodforde_DFW\model_Mar12/Mar12_saturated.upw
 FILE TYPE:UPW   UNIT   31   STATUS:OLD    
 FORMAT:FORMATTED              ACCESS:SEQUENTIAL          

 OPENING D:\workspace\noor0021\Woodforde_DFW\model_Mar12/Mar12_saturated.dfw
 FILE TYPE:DFW   UNIT   12   STATUS:OLD    
 FORMAT:FORMATTED              ACCESS:SEQUENTIAL          

 OPENING D:\workspace\noor0021\Woodforde_DFW\model_Mar12/Mar12_saturated.oc
 FILE TYPE:OC   UNIT   14   STATUS:OLD    
 FORMAT:FORMATTED              ACCESS:SEQUENTIAL          

 OPENING D:\workspace\noor0021\Woodforde_DFW\model_Mar12/Mar12_saturated.cbc
 FILE TYPE:DATA(BINARY)   UNIT    1   STATUS:REPLACE
 FORMAT:BINARY                 ACCESS:SEQUENTIAL          

 OPENING D:\workspace\noor0021\Woodforde_DFW\model_Mar12/Mar12_saturated.hds
 FILE TYPE:DATA(BINARY)   UNIT   51   STATUS:REPLACE
 FORMAT:BINARY                 ACCESS:SEQUENTIAL          

 BAS -- BASIC PACKAGE, VERSION 1.0.7, 1/15/2013 INPUT READ FROM UNIT   13
 
 MODFLOW was compiled using mixed precision
 Precision of REAL variables:           6
 Precision of DOUBLE PRECISION variables:          15

 DISCRETIZATION INPUT DATA READ FROM UNIT   11
 # DIS package for  MODFLOW-NWT, generated by Flopy.
    2 LAYERS       188 ROWS        60 COLUMNS
    1 STRESS PERIOD(S) IN SIMULATION
 MODEL TIME UNIT IS SECONDS
 MODEL LENGTH UNIT IS METERS
  Confining bed flag for each layer:
   0   0



                               DELR
 READING ON UNIT   11 WITH FORMAT: (60E15.6)           



                               DELC
 READING ON UNIT   11 WITH FORMAT: (188E15.6)          



           TOP ELEVATION OF LAYER 1
 READING ON UNIT   11 WITH FORMAT: (60E15.6)           



             MODEL LAYER BOTTOM EL. FOR LAYER   1
 READING ON UNIT   11 WITH FORMAT: (60E15.6)           



             MODEL LAYER BOTTOM EL. FOR LAYER   2
 READING ON UNIT   11 WITH FORMAT: (60E15.6)           


 STRESS PERIOD     LENGTH       TIME STEPS     MULTIPLIER FOR DELT    SS FLAG
 ----------------------------------------------------------------------------
        1         1.000000          1                    1.000         SS

 STEADY-STATE SIMULATION



 
 # BAS6 package for  MODFLOW-NWT, generated by Flopy.                            
 THE FREE FORMAT OPTION HAS BEEN SELECTED



                     BOUNDARY ARRAY FOR LAYER   1
 READING ON UNIT   13 WITH FORMAT: (60I10)             



                     BOUNDARY ARRAY FOR LAYER   2
 READING ON UNIT   13 WITH FORMAT: (60I10)             

 AQUIFER HEAD WILL BE SET TO  -999.99     AT ALL NO-FLOW NODES (IBOUND=0).



                       INITIAL HEAD FOR LAYER   1
 READING ON UNIT   13 WITH FORMAT: (60E15.6)           



                       INITIAL HEAD FOR LAYER   2
 READING ON UNIT   13 WITH FORMAT: (60E15.6)           
 # OC package for  MODFLOW-NWT, generated by Flopy.

 OUTPUT CONTROL IS SPECIFIED ONLY AT TIME STEPS FOR WHICH OUTPUT IS DESIRED
 COMPACT CELL-BY-CELL BUDGET FILES WILL BE WRITTEN
 AUXILIARY DATA WILL BE SAVED IN CELL-BY-CELL BUDGET FILES
 HEAD PRINT FORMAT CODE IS   0    DRAWDOWN PRINT FORMAT CODE IS   0
 HEADS WILL BE SAVED ON UNIT   51    DRAWDOWNS WILL BE SAVED ON UNIT    0

 DFW1 -- DIFFUSION WAVE PACKAGE, VERSION 1, 08/15/2010
         INPUT READ FROM UNIT  12
 # Diffusion-wave package for  MODFLOW-dfw, generated by Flopy.


 NUMBER OF STREAM REACHES IS  211

 NUMBER OF STREAM SEGMENTS IS  211

 MAXIMUM ERROR FOR STREAM LEAKAGE RATES IS  1.00E+00





   STREAM NETWORK DESCRIPTION: 

   LAYER    ROW    COL   SEGMENT   REACH     LENGTH     STREAMBED     STREAMBED   STREAMBED     STREAMBED    THETA S     THETA I    THETA R
                          NUMBER   NUMBER    IN CELL    TOP ELEV.       SLOPE     THICKNESS   HYDR. CONDUCT.
   ---------------------------------------------------------------------------------------------------------
       1    188     20       1        1    1.0000E+02   6.1998E+02   2.9900E-03   1.0000E+00   5.7870E-05   4.0000E-01   1.0000E-01   1.0000E-02
       1    187     20       2        1    1.0000E+02   6.1957E+02   2.9100E-03   1.0000E+00   5.7870E-05   4.0000E-01   1.0000E-01   1.0000E-02
       1    186     21       3        1    1.0000E+02   6.1940E+02   1.3450E-03   1.0000E+00   5.7870E-05   4.0000E-01   1.0000E-01   1.0000E-02
       1    185     21       4        1    1.0000E+02   6.1930E+02   8.4000E-04   1.0000E+00   5.7870E-05   4.0000E-01   1.0000E-01   1.0000E-02
       1    184     21       5        1    1.0000E+02   6.1923E+02   1.3650E-03   1.0000E+00   5.7870E-05   4.0000E-01   1.0000E-01   1.0000E-02
       1    183     22       6        1    2.0000E+02   6.1903E+02   2.1600E-03   1.0000E+00   5.7870E-05   4.0000E-01   1.0000E-01   1.0000E-02
       1    182     23       7        1    1.0000E+02   6.1867E+02   3.0500E-03   1.0000E+00   5.7870E-05   4.0000E-01   1.0000E-01   1.0000E-02
       1    181     24       8        1    1.0000E+02   6.1819E+02   3.4200E-03   1.0000E+00   5.7870E-05   4.0000E-01   1.0000E-01   1.0000E-02
       1    180     25       9        1    2.0000E+02   6.1799E+02   2.0650E-03   1.0000E+00   5.7870E-05   4.0000E-01   1.0000E-01   1.0000E-02
       1    179     26      10        1    1.0000E+02   6.1774E+02   1.1650E-03   1.0000E+00   5.7870E-05   4.0000E-01   1.0000E-01   1.0000E-02
       1    178     26      11        1    1.0000E+02   6.1754E+02   2.0500E-03   1.0000E+00   5.7870E-05   4.0000E-01   1.0000E-01   1.0000E-02
       1    177     27      12        1    1.0000E+02   6.1733E+02   1.6100E-03   1.0000E+00   5.7870E-05   4.0000E-01   1.0000E-01   1.0000E-02
       1    176     27      13        1    1.0000E+02   6.1722E+02   2.2900E-03   1.0000E+00   5.7870E-05   4.0000E-01   1.0000E-01   1.0000E-02
       1    175     27      14        1    1.0000E+02   6.1687E+02   2.7500E-03   1.0000E+00   5.7870E-05   4.0000E-01   1.0000E-01   1.0000E-02
       1    174     28      15        1    1.0000E+02   6.1667E+02   2.0950E-03   1.0000E+00   5.7870E-05   4.0000E-01   1.0000E-01   1.0000E-02
       1    173     28      16        1    1.0000E+02   6.1645E+02   1.3000E-03   1.0000E+00   5.7870E-05   4.0000E-01   1.0000E-01   1.0000E-02
       1    172     28      17        1    1.0000E+02   6.1641E+02   1.0950E-03   1.0000E+00   5.7870E-05   4.0000E-01   1.0000E-01   1.0000E-02
       1    171     28      18        1    1.0000E+02   6.1623E+02   2.3550E-03   1.0000E+00   5.7870E-05   4.0000E-01   1.0000E-01   1.0000E-02
       1    170     28      19        1    1.0000E+02   6.1594E+02   3.1750E-03   1.0000E+00   5.7870E-05   4.0000E-01   1.0000E-01   1.0000E-02
       1    169     28      20        1    1.0000E+02   6.1560E+02   3.9450E-03   1.0000E+00   5.7870E-05   4.0000E-01   1.0000E-01   1.0000E-02
       1    168     29      21        1    2.0000E+02   6.1515E+02   3.0000E-03   1.0000E+00   5.7870E-05   4.0000E-01   1.0000E-01   1.0000E-02
       1    167     30      22        1    1.0000E+02   6.1497E+02   1.7100E-03   1.0000E+00   5.7870E-05   4.0000E-01   1.0000E-01   1.0000E-02
       1    166     31      23        1    1.0000E+02   6.1465E+02   1.7550E-03   1.0000E+00   5.7870E-05   4.0000E-01   1.0000E-01   1.0000E-02
       1    166     32      24        1    1.0000E+02   6.1462E+02   6.8500E-04   1.0000E+00   5.7870E-05   4.0000E-01   1.0000E-01   1.0000E-02
       1    165     32      25        1    1.0000E+02   6.1452E+02   1.5100E-03   1.0000E+00   5.7870E-05   4.0000E-01   1.0000E-01   1.0000E-02
       1    164     33      26        1    1.0000E+02   6.1432E+02   1.6450E-03   1.0000E+00   5.7870E-05   4.0000E-01   1.0000E-01   1.0000E-02
       1    164     34      27        1    1.0000E+02   6.1419E+02   1.6250E-03   1.0000E+00   5.7870E-05   4.0000E-01   1.0000E-01   1.0000E-02
       1    163     34      28        1    1.0000E+02   6.1399E+02   1.7400E-03   1.0000E+00   5.7870E-05   4.0000E-01   1.0000E-01   1.0000E-02
       1    162     35      29        1    1.0000E+02   6.1384E+02   1.9550E-03   1.0000E+00   5.7870E-05   4.0000E-01   1.0000E-01   1.0000E-02
       1    161     35      30        1    1.0000E+02   6.1360E+02   1.9500E-03   1.0000E+00   5.7870E-05   4.0000E-01   1.0000E-01   1.0000E-02
       1    160     36      31        1    1.0000E+02   6.1345E+02   1.6250E-03   1.0000E+00   5.7870E-05   4.0000E-01   1.0000E-01   1.0000E-02
       1    159     36      32        1    1.0000E+02   6.1327E+02   1.9600E-03   1.0000E+00   5.7870E-05   4.0000E-01   1.0000E-01   1.0000E-02
       1    159     37      33        1    1.0000E+02   6.1306E+02   3.2000E-03   1.0000E+00   5.7870E-05   4.0000E-01   1.0000E-01   1.0000E-02
       1    158     37      34        1    1.0000E+02   6.1263E+02   2.4700E-03   1.0000E+00   5.7870E-05   4.0000E-01   1.0000E-01   1.0000E-02
       1    157     37      35        1    1.0000E+02   6.1256E+02   1.6800E-03   1.0000E+00   5.7870E-05   4.0000E-01   1.0000E-01   1.0000E-02
       1    156     37      36        1    1.0000E+02   6.1230E+02   1.8100E-03   1.0000E+00   5.7870E-05   4.0000E-01   1.0000E-01   1.0000E-02
       1    155     37      37        1    1.0000E+02   6.1220E+02   1.9750E-03   1.0000E+00   5.7870E-05   4.0000E-01   1.0000E-01   1.0000E-02
       1    154     37      38        1    1.0000E+02   6.1190E+02   1.7450E-03   1.0000E+00   5.7870E-05   4.0000E-01   1.0000E-01   1.0000E-02
       1    153     37      39        1    1.0000E+02   6.1185E+02   4.8000E-04   1.0000E+00   5.7870E-05   4.0000E-01   1.0000E-01   1.0000E-02
       1    152     38      40        1    1.0000E+02   6.1181E+02   1.3750E-03   1.0000E+00   5.7870E-05   4.0000E-01   1.0000E-01   1.0000E-02
       1    151     38      41        1    1.0000E+02   6.1158E+02   2.1750E-03   1.0000E+00   5.7870E-05   4.0000E-01   1.0000E-01   1.0000E-02
       1    150     38      42        1    1.0000E+02   6.1137E+02   1.5450E-03   1.0000E+00   5.7870E-05   4.0000E-01   1.0000E-01   1.0000E-02
       1    149     39      43        1    1.0000E+02   6.1127E+02   1.4150E-03   1.0000E+00   5.7870E-05   4.0000E-01   1.0000E-01   1.0000E-02
       1    148     39      44        1    1.0000E+02   6.1109E+02   1.2850E-03   1.0000E+00   5.7870E-05   4.0000E-01   1.0000E-01   1.0000E-02
       1    147     40      45        1    1.0000E+02   6.1101E+02   1.5250E-03   1.0000E+00   5.7870E-05   4.0000E-01   1.0000E-01   1.0000E-02
       1    146     40      46        1    1.0000E+02   6.1078E+02   2.3400E-03   1.0000E+00   5.7870E-05   4.0000E-01   1.0000E-01   1.0000E-02
       1    145     40      47        1    1.0000E+02   6.1054E+02   1.2850E-03   1.0000E+00   5.7870E-05   4.0000E-01   1.0000E-01   1.0000E-02
       1    144     41      48        1    1.0000E+02   6.1053E+02   1.3800E-03   1.0000E+00   5.7870E-05   4.0000E-01   1.0000E-01   1.0000E-02
       1    143     41      49        1    1.0000E+02   6.1027E+02   2.1100E-03   1.0000E+00   5.7870E-05   4.0000E-01   1.0000E-01   1.0000E-02
       1    143     42      50        1    1.0000E+02   6.1011E+02   2.3850E-03   1.0000E+00   5.7870E-05   4.0000E-01   1.0000E-01   1.0000E-02
       1    142     42      51        1    1.0000E+02   6.0979E+02   1.9050E-03   1.0000E+00   5.7870E-05   4.0000E-01   1.0000E-01   1.0000E-02
       1    141     42      52        1    1.0000E+02   6.0973E+02   1.4100E-03   1.0000E+00   5.7870E-05   4.0000E-01   1.0000E-01   1.0000E-02
       1    140     42      53        1    1.0000E+02   6.0951E+02   2.5500E-03   1.0000E+00   5.7870E-05   4.0000E-01   1.0000E-01   1.0000E-02
       1    139     42      54        1    1.0000E+02   6.0922E+02   1.7050E-03   1.0000E+00   5.7870E-05   4.0000E-01   1.0000E-01   1.0000E-02
       1    138     42      55        1    1.0000E+02   6.0917E+02   1.4950E-03   1.0000E+00   5.7870E-05   4.0000E-01   1.0000E-01   1.0000E-02
       1    137     42      56        1    1.0000E+02   6.0892E+02   2.5950E-03   1.0000E+00   5.7870E-05   4.0000E-01   1.0000E-01   1.0000E-02
       1    136     42      57        1    1.0000E+02   6.0865E+02   1.9450E-03   1.0000E+00   5.7870E-05   4.0000E-01   1.0000E-01   1.0000E-02
       1    135     42      58        1    1.0000E+02   6.0853E+02   1.4800E-03   1.0000E+00   5.7870E-05   4.0000E-01   1.0000E-01   1.0000E-02
       1    134     42      59        1    1.0000E+02   6.0835E+02   1.5000E-03   1.0000E+00   5.7870E-05   4.0000E-01   1.0000E-01   1.0000E-02
       1    133     42      60        1    1.0000E+02   6.0823E+02   1.0000E-03   1.0000E+00   5.7870E-05   4.0000E-01   1.0000E-01   1.0000E-02
       1    132     42      61        1    1.0000E+02   6.0815E+02   1.0200E-03   1.0000E+00   5.7870E-05   4.0000E-01   1.0000E-01   1.0000E-02
       1    131     42      62        1    1.0000E+02   6.0802E+02   1.5100E-03   1.0000E+00   5.7870E-05   4.0000E-01   1.0000E-01   1.0000E-02
       1    130     42      63        1    1.0000E+02   6.0785E+02   2.0300E-03   1.0000E+00   5.7870E-05   4.0000E-01   1.0000E-01   1.0000E-02
       1    129     42      64        1    1.0000E+02   6.0762E+02   1.8000E-03   1.0000E+00   5.7870E-05   4.0000E-01   1.0000E-01   1.0000E-02
       1    128     42      65        1    1.0000E+02   6.0749E+02   1.6750E-03   1.0000E+00   5.7870E-05   4.0000E-01   1.0000E-01   1.0000E-02
       1    127     42      66        1    1.0000E+02   6.0728E+02   2.0850E-03   1.0000E+00   5.7870E-05   4.0000E-01   1.0000E-01   1.0000E-02
       1    126     41      67        1    1.0000E+02   6.0707E+02   2.0500E-03   1.0000E+00   5.7870E-05   4.0000E-01   1.0000E-01   1.0000E-02
       1    125     41      68        1    1.0000E+02   6.0687E+02   9.8500E-04   1.0000E+00   5.7870E-05   4.0000E-01   1.0000E-01   1.0000E-02
       1    124     41      69        1    1.0000E+02   6.0688E+02   6.2000E-04   1.0000E+00   5.7870E-05   4.0000E-01   1.0000E-01   1.0000E-02
       1    123     40      70        1    1.0000E+02   6.0675E+02   1.0850E-03   1.0000E+00   5.7870E-05   4.0000E-01   1.0000E-01   1.0000E-02
       1    122     40      71        1    1.0000E+02   6.0666E+02   1.3500E-03   1.0000E+00   5.7870E-05   4.0000E-01   1.0000E-01   1.0000E-02
       1    121     40      72        1    1.0000E+02   6.0648E+02   1.0400E-03   1.0000E+00   5.7870E-05   4.0000E-01   1.0000E-01   1.0000E-02
       1    120     39      73        1    1.0000E+02   6.0645E+02   1.9000E-03   1.0000E+00   5.7870E-05   4.0000E-01   1.0000E-01   1.0000E-02
       1    119     39      74        1    1.0000E+02   6.0610E+02   1.9350E-03   1.0000E+00   5.7870E-05   4.0000E-01   1.0000E-01   1.0000E-02
       1    118     39      75        1    1.0000E+02   6.0606E+02   1.3900E-03   1.0000E+00   5.7870E-05   4.0000E-01   1.0000E-01   1.0000E-02
       1    117     39      76        1    1.0000E+02   6.0582E+02   1.6600E-03   1.0000E+00   5.7870E-05   4.0000E-01   1.0000E-01   1.0000E-02
       1    116     39      77        1    1.0000E+02   6.0573E+02   1.1550E-03   1.0000E+00   5.7870E-05   4.0000E-01   1.0000E-01   1.0000E-02
       1    115     39      78        1    1.0000E+02   6.0559E+02   2.0500E-03   1.0000E+00   5.7870E-05   4.0000E-01   1.0000E-01   1.0000E-02
       1    114     38      79        1    1.0000E+02   6.0532E+02   1.7300E-03   1.0000E+00   5.7870E-05   4.0000E-01   1.0000E-01   1.0000E-02
       1    113     38      80        1    1.0000E+02   6.0524E+02   1.8600E-03   1.0000E+00   5.7870E-05   4.0000E-01   1.0000E-01   1.0000E-02
       1    113     37      81        1    1.0000E+02   6.0495E+02   3.3650E-03   1.0000E+00   5.7870E-05   4.0000E-01   1.0000E-01   1.0000E-02
       1    112     36      82        1    1.0000E+02   6.0457E+02   1.2800E-03   1.0000E+00   5.7870E-05   4.0000E-01   1.0000E-01   1.0000E-02
       1    112     35      83        1    1.0000E+02   6.0469E+02   2.9500E-04   1.0000E+00   5.7870E-05   4.0000E-01   1.0000E-01   1.0000E-02
       1    111     34      84        1    1.0000E+02   6.0451E+02   1.5250E-03   1.0000E+00   5.7870E-05   4.0000E-01   1.0000E-01   1.0000E-02
       1    112     33      85        1    2.0000E+02   6.0439E+02   1.7450E-03   1.0000E+00   5.7870E-05   4.0000E-01   1.0000E-01   1.0000E-02
       1    112     32      86        1    1.0000E+02   6.0407E+02   1.4800E-03   1.0000E+00   5.7870E-05   4.0000E-01   1.0000E-01   1.0000E-02
       1    111     31      87        1    1.0000E+02   6.0387E+02   1.6850E-03   1.0000E+00   5.7870E-05   4.0000E-01   1.0000E-01   1.0000E-02
       1    110     30      88        1    1.0000E+02   6.0373E+02   1.1700E-03   1.0000E+00   5.7870E-05   4.0000E-01   1.0000E-01   1.0000E-02
       1    109     30      89        1    1.0000E+02   6.0363E+02   1.8050E-03   1.0000E+00   5.7870E-05   4.0000E-01   1.0000E-01   1.0000E-02
       1    108     31      90        1    1.0000E+02   6.0337E+02   2.1150E-03   1.0000E+00   5.7870E-05   4.0000E-01   1.0000E-01   1.0000E-02
       1    107     31      91        1    1.0000E+02   6.0321E+02   1.5050E-03   1.0000E+00   5.7870E-05   4.0000E-01   1.0000E-01   1.0000E-02
       1    106     31      92        1    1.0000E+02   6.0307E+02   1.3200E-03   1.0000E+00   5.7870E-05   4.0000E-01   1.0000E-01   1.0000E-02
       1    105     30      93        1    1.0000E+02   6.0295E+02   1.2300E-03   1.0000E+00   5.7870E-05   4.0000E-01   1.0000E-01   1.0000E-02
       1    104     30      94        1    1.0000E+02   6.0282E+02   2.1200E-03   1.0000E+00   5.7870E-05   4.0000E-01   1.0000E-01   1.0000E-02
       1    103     30      95        1    1.0000E+02   6.0252E+02   1.8300E-03   1.0000E+00   5.7870E-05   4.0000E-01   1.0000E-01   1.0000E-02
       1    103     29      96        1    1.0000E+02   6.0246E+02   1.1750E-03   1.0000E+00   5.7870E-05   4.0000E-01   1.0000E-01   1.0000E-02
       1    102     29      97        1    1.0000E+02   6.0229E+02   1.0800E-03   1.0000E+00   5.7870E-05   4.0000E-01   1.0000E-01   1.0000E-02
       1    101     29      98        1    1.0000E+02   6.0224E+02   1.2150E-03   1.0000E+00   5.7870E-05   4.0000E-01   1.0000E-01   1.0000E-02
       1    100     28      99        1    1.0000E+02   6.0204E+02   2.7650E-03   1.0000E+00   5.7870E-05   4.0000E-01   1.0000E-01   1.0000E-02
       1     99     28     100        1    1.0000E+02   6.0169E+02   1.5900E-03   1.0000E+00   5.7870E-05   4.0000E-01   1.0000E-01   1.0000E-02
       1     98     28     101        1    1.0000E+02   6.0173E+02   3.0000E-04   1.0000E+00   5.7870E-05   4.0000E-01   1.0000E-01   1.0000E-02
       1     97     28     102        1    1.0000E+02   6.0163E+02   8.0000E-04   1.0000E+00   5.7870E-05   4.0000E-01   1.0000E-01   1.0000E-02
       1     96     28     103        1    1.0000E+02   6.0157E+02   1.0850E-03   1.0000E+00   5.7870E-05   4.0000E-01   1.0000E-01   1.0000E-02
       1     95     27     104        1    1.0000E+02   6.0141E+02   9.3000E-04   1.0000E+00   5.7870E-05   4.0000E-01   1.0000E-01   1.0000E-02
       1     94     27     105        1    1.0000E+02   6.0138E+02   9.3500E-04   1.0000E+00   5.7870E-05   4.0000E-01   1.0000E-01   1.0000E-02
       1     93     27     106        1    1.0000E+02   6.0122E+02   1.0600E-03   1.0000E+00   5.7870E-05   4.0000E-01   1.0000E-01   1.0000E-02
       1     92     27     107        1    1.0000E+02   6.0117E+02   1.2750E-03   1.0000E+00   5.7870E-05   4.0000E-01   1.0000E-01   1.0000E-02
       1     91     27     108        1    1.0000E+02   6.0097E+02   2.0750E-03   1.0000E+00   5.7870E-05   4.0000E-01   1.0000E-01   1.0000E-02
       1     90     27     109        1    1.0000E+02   6.0075E+02   1.8400E-03   1.0000E+00   5.7870E-05   4.0000E-01   1.0000E-01   1.0000E-02
       1     89     27     110        1    1.0000E+02   6.0060E+02   6.7500E-04   1.0000E+00   5.7870E-05   4.0000E-01   1.0000E-01   1.0000E-02
       1     88     27     111        1    1.0000E+02   6.0062E+02   8.0000E-04   1.0000E+00   5.7870E-05   4.0000E-01   1.0000E-01   1.0000E-02
       1     87     27     112        1    1.0000E+02   6.0044E+02   1.4800E-03   1.0000E+00   5.7870E-05   4.0000E-01   1.0000E-01   1.0000E-02
       1     86     27     113        1    1.0000E+02   6.0032E+02   1.3750E-03   1.0000E+00   5.7870E-05   4.0000E-01   1.0000E-01   1.0000E-02
       1     85     27     114        1    1.0000E+02   6.0016E+02   1.8950E-03   1.0000E+00   5.7870E-05   4.0000E-01   1.0000E-01   1.0000E-02
       1     84     27     115        1    1.0000E+02   5.9994E+02   1.6850E-03   1.0000E+00   5.7870E-05   4.0000E-01   1.0000E-01   1.0000E-02
       1     83     27     116        1    1.0000E+02   5.9983E+02   1.2800E-03   1.0000E+00   5.7870E-05   4.0000E-01   1.0000E-01   1.0000E-02
       1     82     28     117        1    1.0000E+02   5.9969E+02   1.2600E-03   1.0000E+00   5.7870E-05   4.0000E-01   1.0000E-01   1.0000E-02
       1     82     29     118        1    1.0000E+02   5.9958E+02   1.5450E-03   1.0000E+00   5.7870E-05   4.0000E-01   1.0000E-01   1.0000E-02
       1     81     29     119        1    1.0000E+02   5.9938E+02   1.9750E-03   1.0000E+00   5.7870E-05   4.0000E-01   1.0000E-01   1.0000E-02
       1     82     30     120        1    1.0000E+02   5.9918E+02   2.1400E-03   1.0000E+00   5.7870E-05   4.0000E-01   1.0000E-01   1.0000E-02
       1     82     31     121        1    1.0000E+02   5.9895E+02   1.2300E-03   1.0000E+00   5.7870E-05   4.0000E-01   1.0000E-01   1.0000E-02
       1     82     32     122        1    1.0000E+02   5.9893E+02   2.6000E-04   1.0000E+00   5.7870E-05   4.0000E-01   1.0000E-01   1.0000E-02
       1     82     33     123        1    1.0000E+02   5.9890E+02   8.0500E-04   1.0000E+00   5.7870E-05   4.0000E-01   1.0000E-01   1.0000E-02
       1     81     34     124        1    1.0000E+02   5.9877E+02   1.7050E-03   1.0000E+00   5.7870E-05   4.0000E-01   1.0000E-01   1.0000E-02
       1     80     34     125        1    1.0000E+02   5.9856E+02   1.4050E-03   1.0000E+00   5.7870E-05   4.0000E-01   1.0000E-01   1.0000E-02
       1     79     34     126        1    1.0000E+02   5.9849E+02   2.0200E-03   1.0000E+00   5.7870E-05   4.0000E-01   1.0000E-01   1.0000E-02
       1     78     34     127        1    1.0000E+02   5.9815E+02   1.4550E-03   1.0000E+00   5.7870E-05   4.0000E-01   1.0000E-01   1.0000E-02
       1     77     33     128        1    1.0000E+02   5.9820E+02   4.4000E-04   1.0000E+00   5.7870E-05   4.0000E-01   1.0000E-01   1.0000E-02
       1     76     33     129        1    1.0000E+02   5.9806E+02   2.3450E-03   1.0000E+00   5.7870E-05   4.0000E-01   1.0000E-01   1.0000E-02
       1     75     33     130        1    1.0000E+02   5.9773E+02   1.8300E-03   1.0000E+00   5.7870E-05   4.0000E-01   1.0000E-01   1.0000E-02
       1     74     33     131        1    1.0000E+02   5.9770E+02   6.5500E-04   1.0000E+00   5.7870E-05   4.0000E-01   1.0000E-01   1.0000E-02
       1     73     33     132        1    1.0000E+02   5.9760E+02   1.5250E-03   1.0000E+00   5.7870E-05   4.0000E-01   1.0000E-01   1.0000E-02
       1     72     34     133        1    1.0000E+02   5.9739E+02   1.4750E-03   1.0000E+00   5.7870E-05   4.0000E-01   1.0000E-01   1.0000E-02
       1     71     34     134        1    1.0000E+02   5.9731E+02   1.9100E-03   1.0000E+00   5.7870E-05   4.0000E-01   1.0000E-01   1.0000E-02
       1     70     34     135        1    1.0000E+02   5.9701E+02   1.8600E-03   1.0000E+00   5.7870E-05   4.0000E-01   1.0000E-01   1.0000E-02
       1     69     34     136        1    1.0000E+02   5.9693E+02   1.3900E-03   1.0000E+00   5.7870E-05   4.0000E-01   1.0000E-01   1.0000E-02
       1     68     34     137        1    1.0000E+02   5.9673E+02   1.6900E-03   1.0000E+00   5.7870E-05   4.0000E-01   1.0000E-01   1.0000E-02
       1     67     34     138        1    1.0000E+02   5.9660E+02   1.2750E-03   1.0000E+00   5.7870E-05   4.0000E-01   1.0000E-01   1.0000E-02
       1     66     34     139        1    1.0000E+02   5.9648E+02   6.0500E-04   1.0000E+00   5.7870E-05   4.0000E-01   1.0000E-01   1.0000E-02
       1     65     34     140        1    1.0000E+02   5.9648E+02   1.2650E-03   1.0000E+00   5.7870E-05   4.0000E-01   1.0000E-01   1.0000E-02
       1     64     34     141        1    1.0000E+02   5.9623E+02   1.1850E-03   1.0000E+00   5.7870E-05   4.0000E-01   1.0000E-01   1.0000E-02
       1     63     34     142        1    1.0000E+02   5.9624E+02   2.5400E-03   1.0000E+00   5.7870E-05   4.0000E-01   1.0000E-01   1.0000E-02
       1     62     34     143        1    1.0000E+02   5.9572E+02   1.9850E-03   1.0000E+00   5.7870E-05   4.0000E-01   1.0000E-01   1.0000E-02
       1     61     33     144        1    1.0000E+02   5.9584E+02   3.0000E-05   1.0000E+00   5.7870E-05   4.0000E-01   1.0000E-01   1.0000E-02
       1     60     33     145        1    1.0000E+02   5.9572E+02   1.6150E-03   1.0000E+00   5.7870E-05   4.0000E-01   1.0000E-01   1.0000E-02
       1     59     32     146        1    2.0000E+02   5.9552E+02   2.6500E-04   1.0000E+00   5.7870E-05   4.0000E-01   1.0000E-01   1.0000E-02
       1     58     32     147        1    1.0000E+02   5.9563E+02   1.7900E-03   1.0000E+00   5.7870E-05   4.0000E-01   1.0000E-01   1.0000E-02
       1     57     32     148        1    1.0000E+02   5.9542E+02   1.5150E-03   1.0000E+00   5.7870E-05   4.0000E-01   1.0000E-01   1.0000E-02
       1     56     33     149        1    1.0000E+02   5.9533E+02   1.9000E-03   1.0000E+00   5.7870E-05   4.0000E-01   1.0000E-01   1.0000E-02
       1     55     33     150        1    1.0000E+02   5.9504E+02   1.3600E-03   1.0000E+00   5.7870E-05   4.0000E-01   1.0000E-01   1.0000E-02
       1     54     33     151        1    1.0000E+02   5.9505E+02   5.3000E-04   1.0000E+00   5.7870E-05   4.0000E-01   1.0000E-01   1.0000E-02
       1     53     33     152        1    1.0000E+02   5.9493E+02   1.4350E-03   1.0000E+00   5.7870E-05   4.0000E-01   1.0000E-01   1.0000E-02
       1     52     32     153        1    1.0000E+02   5.9477E+02   1.1550E-03   1.0000E+00   5.7870E-05   4.0000E-01   1.0000E-01   1.0000E-02
       1     51     32     154        1    1.0000E+02   5.9470E+02   1.1250E-03   1.0000E+00   5.7870E-05   4.0000E-01   1.0000E-01   1.0000E-02
       1     50     31     155        1    1.0000E+02   5.9454E+02   2.0350E-03   1.0000E+00   5.7870E-05   4.0000E-01   1.0000E-01   1.0000E-02
       1     49     30     156        1    2.0000E+02   5.9429E+02   1.3550E-03   1.0000E+00   5.7870E-05   4.0000E-01   1.0000E-01   1.0000E-02
       1     48     29     157        1    1.0000E+02   5.9398E+02   1.8800E-03   1.0000E+00   5.7870E-05   4.0000E-01   1.0000E-01   1.0000E-02
       1     48     28     158        1    1.0000E+02   5.9390E+02   1.1400E-03   1.0000E+00   5.7870E-05   4.0000E-01   1.0000E-01   1.0000E-02
       1     48     27     159        1    1.0000E+02   5.9375E+02   1.2100E-03   1.0000E+00   5.7870E-05   4.0000E-01   1.0000E-01   1.0000E-02
       1     48     26     160        1    1.0000E+02   5.9365E+02   1.7000E-03   1.0000E+00   5.7870E-05   4.0000E-01   1.0000E-01   1.0000E-02
       1     48     25     161        1    1.0000E+02   5.9341E+02   2.3000E-03   1.0000E+00   5.7870E-05   4.0000E-01   1.0000E-01   1.0000E-02
       1     47     24     162        1    1.0000E+02   5.9319E+02   1.7150E-03   1.0000E+00   5.7870E-05   4.0000E-01   1.0000E-01   1.0000E-02
       1     46     23     163        1    1.0000E+02   5.9307E+02   8.5500E-04   1.0000E+00   5.7870E-05   4.0000E-01   1.0000E-01   1.0000E-02
       1     45     23     164        1    2.0000E+02   5.9302E+02   8.0500E-04   1.0000E+00   5.7870E-05   4.0000E-01   1.0000E-01   1.0000E-02
       1     44     22     165        1    1.0000E+02   5.9282E+02   9.7500E-04   1.0000E+00   5.7870E-05   4.0000E-01   1.0000E-01   1.0000E-02
       1     43     21     166        1    1.0000E+02   5.9271E+02   1.2750E-03   1.0000E+00   5.7870E-05   4.0000E-01   1.0000E-01   1.0000E-02
       1     43     20     167        1    1.0000E+02   5.9256E+02   1.7750E-03   1.0000E+00   5.7870E-05   4.0000E-01   1.0000E-01   1.0000E-02
       1     42     20     168        1    1.0000E+02   5.9236E+02   4.2900E-03   1.0000E+00   5.7870E-05   4.0000E-01   1.0000E-01   1.0000E-02
       1     41     20     169        1    1.0000E+02   5.9170E+02   1.1950E-03   1.0000E+00   5.7870E-05   4.0000E-01   1.0000E-01   1.0000E-02
       1     40     20     170        1    1.0000E+02   5.9212E+02   2.3700E-03   1.0000E+00   5.7870E-05   4.0000E-01   1.0000E-01   1.0000E-02
       1     39     20     171        1    1.0000E+02   5.9218E+02   1.3450E-03   1.0000E+00   5.7870E-05   4.0000E-01   1.0000E-01   1.0000E-02
       1     38     19     172        1    1.0000E+02   5.9185E+02   1.7200E-03   1.0000E+00   5.7870E-05   4.0000E-01   1.0000E-01   1.0000E-02
       1     37     19     173        1    1.0000E+02   5.9183E+02   4.8000E-04   1.0000E+00   5.7870E-05   4.0000E-01   1.0000E-01   1.0000E-02
       1     36     19     174        1    1.0000E+02   5.9175E+02   1.4400E-03   1.0000E+00   5.7870E-05   4.0000E-01   1.0000E-01   1.0000E-02
       1     35     18     175        1    1.0000E+02   5.9154E+02   1.9150E-03   1.0000E+00   5.7870E-05   4.0000E-01   1.0000E-01   1.0000E-02
       1     34     18     176        1    1.0000E+02   5.9137E+02   1.7900E-03   1.0000E+00   5.7870E-05   4.0000E-01   1.0000E-01   1.0000E-02
       1     33     18     177        1    1.0000E+02   5.9119E+02   1.7650E-03   1.0000E+00   5.7870E-05   4.0000E-01   1.0000E-01   1.0000E-02
       1     32     18     178        1    1.0000E+02   5.9102E+02   1.1850E-03   1.0000E+00   5.7870E-05   4.0000E-01   1.0000E-01   1.0000E-02
       1     31     19     179        1    1.0000E+02   5.9095E+02   1.1650E-03   1.0000E+00   5.7870E-05   4.0000E-01   1.0000E-01   1.0000E-02
       1     30     19     180        1    1.0000E+02   5.9079E+02   2.6800E-03   1.0000E+00   5.7870E-05   4.0000E-01   1.0000E-01   1.0000E-02
       1     29     19     181        1    1.0000E+02   5.9041E+02   1.1800E-03   1.0000E+00   5.7870E-05   4.0000E-01   1.0000E-01   1.0000E-02
       1     28     20     182        1    1.0000E+02   5.9055E+02   1.0000E-05   1.0000E+00   5.7870E-05   4.0000E-01   1.0000E-01   1.0000E-02
       1     27     19     183        1    1.0000E+02   5.9041E+02   1.1700E-03   1.0000E+00   5.7870E-05   4.0000E-01   1.0000E-01   1.0000E-02
       1     26     19     184        1    1.0000E+02   5.9032E+02   1.2200E-03   1.0000E+00   5.7870E-05   4.0000E-01   1.0000E-01   1.0000E-02
       1     25     19     185        1    1.0000E+02   5.9017E+02   1.9300E-03   1.0000E+00   5.7870E-05   4.0000E-01   1.0000E-01   1.0000E-02
       1     24     19     186        1    1.0000E+02   5.8993E+02   1.5550E-03   1.0000E+00   5.7870E-05   4.0000E-01   1.0000E-01   1.0000E-02
       1     23     19     187        1    1.0000E+02   5.8986E+02   2.1800E-03   1.0000E+00   5.7870E-05   4.0000E-01   1.0000E-01   1.0000E-02
       1     22     19     188        1    1.0000E+02   5.8949E+02   1.9250E-03   1.0000E+00   5.7870E-05   4.0000E-01   1.0000E-01   1.0000E-02
       1     21     19     189        1    1.0000E+02   5.8947E+02   1.1900E-03   1.0000E+00   5.7870E-05   4.0000E-01   1.0000E-01   1.0000E-02
       1     20     19     190        1    1.0000E+02   5.8926E+02   1.2700E-03   1.0000E+00   5.7870E-05   4.0000E-01   1.0000E-01   1.0000E-02
       1     20     18     191        1    1.0000E+02   5.8922E+02   2.2500E-04   1.0000E+00   5.7870E-05   4.0000E-01   1.0000E-01   1.0000E-02
       1     19     17     192        1    1.0000E+02   5.8921E+02   8.0000E-04   1.0000E+00   5.7870E-05   4.0000E-01   1.0000E-01   1.0000E-02
       1     18     17     193        1    1.0000E+02   5.8906E+02   1.6800E-03   1.0000E+00   5.7870E-05   4.0000E-01   1.0000E-01   1.0000E-02
       1     17     17     194        1    1.0000E+02   5.8888E+02   1.5850E-03   1.0000E+00   5.7870E-05   4.0000E-01   1.0000E-01   1.0000E-02
       1     16     17     195        1    1.0000E+02   5.8874E+02   9.4000E-04   1.0000E+00   5.7870E-05   4.0000E-01   1.0000E-01   1.0000E-02
       1     15     17     196        1    1.0000E+02   5.8869E+02   1.1200E-03   1.0000E+00   5.7870E-05   4.0000E-01   1.0000E-01   1.0000E-02
       1     14     16     197        1    1.0000E+02   5.8852E+02   1.1250E-03   1.0000E+00   5.7870E-05   4.0000E-01   1.0000E-01   1.0000E-02
       1     13     16     198        1    1.0000E+02   5.8846E+02   6.2000E-04   1.0000E+00   5.7870E-05   4.0000E-01   1.0000E-01   1.0000E-02
       1     12     16     199        1    1.0000E+02   5.8839E+02   1.5350E-03   1.0000E+00   5.7870E-05   4.0000E-01   1.0000E-01   1.0000E-02
       1     11     16     200        1    2.0000E+02   5.8815E+02   1.6200E-03   1.0000E+00   5.7870E-05   4.0000E-01   1.0000E-01   1.0000E-02
       1     10     17     201        1    1.0000E+02   5.8798E+02   1.0050E-03   1.0000E+00   5.7870E-05   4.0000E-01   1.0000E-01   1.0000E-02
       1      9     17     202        1    1.0000E+02   5.8787E+02   1.1850E-03   1.0000E+00   5.7870E-05   4.0000E-01   1.0000E-01   1.0000E-02
       1      8     17     203        1    1.0000E+02   5.8775E+02   1.6600E-03   1.0000E+00   5.7870E-05   4.0000E-01   1.0000E-01   1.0000E-02
       1      7     18     204        1    2.0000E+02   5.8753E+02   1.9700E-03   1.0000E+00   5.7870E-05   4.0000E-01   1.0000E-01   1.0000E-02
       1      6     19     205        1    1.0000E+02   5.8728E+02   1.3350E-03   1.0000E+00   5.7870E-05   4.0000E-01   1.0000E-01   1.0000E-02
       1      5     20     206        1    1.0000E+02   5.8709E+02   6.5000E-04   1.0000E+00   5.7870E-05   4.0000E-01   1.0000E-01   1.0000E-02
       1      4     20     207        1    1.0000E+02   5.8741E+02   9.8500E-04   1.0000E+00   5.7870E-05   4.0000E-01   1.0000E-01   1.0000E-02
       1      3     20     208        1    1.0000E+02   5.8728E+02   2.3550E-03   1.0000E+00   5.7870E-05   4.0000E-01   1.0000E-01   1.0000E-02
       1      2     20     209        1    1.0000E+02   5.8694E+02   2.6000E-04   1.0000E+00   5.7870E-05   4.0000E-01   1.0000E-01   1.0000E-02
       1      1     20     210        1    1.0000E+02   5.8723E+02   7.7500E-04   1.0000E+00   5.7870E-05   4.0000E-01   1.0000E-01   1.0000E-02
       1      1     21     211        1    1.0000E+02   5.8709E+02   2.5950E-03   1.0000E+00   5.7870E-05   4.0000E-01   1.0000E-01   1.0000E-02
 # MODFLOW2005 NWT Input File

 NWT1 -- Newton Solver, VERSION 1, 01/01/2010
         INPUT READ FROM UNIT 32

 SPECIFIED OPTION:
 SOLVER INPUT VALUES ARE SPECIFIED BY USER
 ***XMD linear solver will be used***
 
   CONVERGENCE CRITERION OF   0.100000E-02 FOR HEAD SOLUTION
   AND A TOLERANCE OF   0.500000E-01 FOR FLOW SOLUTION AND 
   A MAXIMUM OF  1000 OUTER ITERATIONS. 


   D-B-D REDUCTION FACTOR OF    0.900000E+00 AND 
   A D-B-D INCREASE FACTOR OF    0.100000E-04 AND 
   A D-B-D RELAXATION OF    0.000000E+00 AND 
   A MOMENTUM FACTOR OF    0.100000E+00 .


 ***BACKTRACKING IS INACTIVE***

 UPW1 -- UPSTREAM WEIGHTING FLOW PACKAGE, VERSION 1.0.6, 12/05/2012
         INPUT READ FROM UNIT 31

 # UPW package for  MODFLOW-NWT, generated by Flopy.
 CELL-BY-CELL FLOWS WILL BE SAVED ON UNIT    1
 No named parameters

   LAYER FLAGS:
 LAYER       LAYTYP          LAYAVG    CHANI           LAYVKA           LAYWET
 ---------------------------------------------------------------------------
    1             4             0     1.000E+00             0             0
    2             4             0     1.000E+00             0             0

   INTERPRETATION OF LAYER FLAGS:
                        INTERBLOCK     HORIZONTAL    DATA IN
         LAYER TYPE   TRANSMISSIVITY   ANISOTROPY   ARRAY VKA   WETTABILITY
 LAYER   (LAYTYP)        (LAYAVG)      (CHANI)     (LAYVKA)       (LAYWET)
 ---------------------------------------------------------------------------
    1   CONVERTIBLE      HARMONIC     1.000E+00    VERTICAL K  NON-WETTABLE
    2   CONVERTIBLE      HARMONIC     1.000E+00    VERTICAL K  NON-WETTABLE

    HYD. COND. ALONG ROWS =  5.787037E-07 FOR LAYER   1

      VERTICAL HYD. COND. =  5.787037E-07 FOR LAYER   1

    HYD. COND. ALONG ROWS =  2.314815E-06 FOR LAYER   2

      VERTICAL HYD. COND. =  2.314815E-06 FOR LAYER   2
1
                            STRESS PERIOD NO.    1, LENGTH =   1.000000    
                            -----------------------------------------------

                              NUMBER OF TIME STEPS =     1

                               MULTIPLIER FOR DELT =     1.000

                            INITIAL TIME STEP SIZE =   1.000000    



 CLASSIFICATION & COUNT OF STREAM SEGMENTS BASED ON SOURCE OF INFLOW:

                HEADWATER     DIVERSION     RECEIVES TRIBUTARY FLOW
                ---------     ---------     -----------------------
                     1              0             210



                    INPUT DATA FOR EACH STREAM SEGMENT
 ---------------------------------------------------------------------------------------------

 SEGMENT    SEG.     INFLOW   OVERLAND   STREAM    STREAM   ICALC  OUTFLOW  DIVERSION PRIORITY
    NO.    LENGTH     RATE     RUNOFF      ET       PPT.    METH.  TO SEG.  FROM SEG.    NO.

      1  1.000E+02 0.000E+00 0.000E+00 0.000E+00 0.000E+00    4        2        0        0
      2  1.000E+02 0.000E+00 0.000E+00 0.000E+00 0.000E+00    4        3        0        0
      3  1.000E+02 0.000E+00 0.000E+00 0.000E+00 0.000E+00    4        4        0        0
      4  1.000E+02 0.000E+00 0.000E+00 0.000E+00 0.000E+00    4        5        0        0
      5  1.000E+02 0.000E+00 0.000E+00 0.000E+00 0.000E+00    4        6        0        0
      6  2.000E+02 0.000E+00 0.000E+00 0.000E+00 0.000E+00    4        7        0        0
      7  1.000E+02 0.000E+00 0.000E+00 0.000E+00 0.000E+00    4        8        0        0
      8  1.000E+02 0.000E+00 0.000E+00 0.000E+00 0.000E+00    4        9        0        0
      9  2.000E+02 0.000E+00 0.000E+00 0.000E+00 0.000E+00    4       10        0        0
     10  1.000E+02 0.000E+00 0.000E+00 0.000E+00 0.000E+00    4       11        0        0
     11  1.000E+02 0.000E+00 0.000E+00 0.000E+00 0.000E+00    4       12        0        0
     12  1.000E+02 0.000E+00 0.000E+00 0.000E+00 0.000E+00    4       13        0        0
     13  1.000E+02 0.000E+00 0.000E+00 0.000E+00 0.000E+00    4       14        0        0
     14  1.000E+02 0.000E+00 0.000E+00 0.000E+00 0.000E+00    4       15        0        0
     15  1.000E+02 0.000E+00 0.000E+00 0.000E+00 0.000E+00    4       16        0        0
     16  1.000E+02 0.000E+00 0.000E+00 0.000E+00 0.000E+00    4       17        0        0
     17  1.000E+02 0.000E+00 0.000E+00 0.000E+00 0.000E+00    4       18        0        0
     18  1.000E+02 0.000E+00 0.000E+00 0.000E+00 0.000E+00    4       19        0        0
     19  1.000E+02 0.000E+00 0.000E+00 0.000E+00 0.000E+00    4       20        0        0
     20  1.000E+02 0.000E+00 0.000E+00 0.000E+00 0.000E+00    4       21        0        0
     21  2.000E+02 0.000E+00 0.000E+00 0.000E+00 0.000E+00    4       22        0        0
     22  1.000E+02 0.000E+00 0.000E+00 0.000E+00 0.000E+00    4       23        0        0
     23  1.000E+02 0.000E+00 0.000E+00 0.000E+00 0.000E+00    4       24        0        0
     24  1.000E+02 0.000E+00 0.000E+00 0.000E+00 0.000E+00    4       25        0        0
     25  1.000E+02 0.000E+00 0.000E+00 0.000E+00 0.000E+00    4       26        0        0
     26  1.000E+02 0.000E+00 0.000E+00 0.000E+00 0.000E+00    4       27        0        0
     27  1.000E+02 0.000E+00 0.000E+00 0.000E+00 0.000E+00    4       28        0        0
     28  1.000E+02 0.000E+00 0.000E+00 0.000E+00 0.000E+00    4       29        0        0
     29  1.000E+02 0.000E+00 0.000E+00 0.000E+00 0.000E+00    4       30        0        0
     30  1.000E+02 0.000E+00 0.000E+00 0.000E+00 0.000E+00    4       31        0        0
     31  1.000E+02 0.000E+00 0.000E+00 0.000E+00 0.000E+00    4       32        0        0
     32  1.000E+02 0.000E+00 0.000E+00 0.000E+00 0.000E+00    4       33        0        0
     33  1.000E+02 0.000E+00 0.000E+00 0.000E+00 0.000E+00    4       34        0        0
     34  1.000E+02 0.000E+00 0.000E+00 0.000E+00 0.000E+00    4       35        0        0
     35  1.000E+02 0.000E+00 0.000E+00 0.000E+00 0.000E+00    4       36        0        0
     36  1.000E+02 0.000E+00 0.000E+00 0.000E+00 0.000E+00    4       37        0        0
     37  1.000E+02 0.000E+00 0.000E+00 0.000E+00 0.000E+00    4       38        0        0
     38  1.000E+02 0.000E+00 0.000E+00 0.000E+00 0.000E+00    4       39        0        0
     39  1.000E+02 0.000E+00 0.000E+00 0.000E+00 0.000E+00    4       40        0        0
     40  1.000E+02 0.000E+00 0.000E+00 0.000E+00 0.000E+00    4       41        0        0
     41  1.000E+02 0.000E+00 0.000E+00 0.000E+00 0.000E+00    4       42        0        0
     42  1.000E+02 0.000E+00 0.000E+00 0.000E+00 0.000E+00    4       43        0        0
     43  1.000E+02 0.000E+00 0.000E+00 0.000E+00 0.000E+00    4       44        0        0
     44  1.000E+02 0.000E+00 0.000E+00 0.000E+00 0.000E+00    4       45        0        0
     45  1.000E+02 0.000E+00 0.000E+00 0.000E+00 0.000E+00    4       46        0        0
     46  1.000E+02 0.000E+00 0.000E+00 0.000E+00 0.000E+00    4       47        0        0
     47  1.000E+02 0.000E+00 0.000E+00 0.000E+00 0.000E+00    4       48        0        0
     48  1.000E+02 0.000E+00 0.000E+00 0.000E+00 0.000E+00    4       49        0        0
     49  1.000E+02 0.000E+00 0.000E+00 0.000E+00 0.000E+00    4       50        0        0
     50  1.000E+02 0.000E+00 0.000E+00 0.000E+00 0.000E+00    4       51        0        0
     51  1.000E+02 0.000E+00 0.000E+00 0.000E+00 0.000E+00    4       52        0        0
     52  1.000E+02 0.000E+00 0.000E+00 0.000E+00 0.000E+00    4       53        0        0
     53  1.000E+02 0.000E+00 0.000E+00 0.000E+00 0.000E+00    4       54        0        0
     54  1.000E+02 0.000E+00 0.000E+00 0.000E+00 0.000E+00    4       55        0        0
     55  1.000E+02 0.000E+00 0.000E+00 0.000E+00 0.000E+00    4       56        0        0
     56  1.000E+02 0.000E+00 0.000E+00 0.000E+00 0.000E+00    4       57        0        0
     57  1.000E+02 0.000E+00 0.000E+00 0.000E+00 0.000E+00    4       58        0        0
     58  1.000E+02 0.000E+00 0.000E+00 0.000E+00 0.000E+00    4       59        0        0
     59  1.000E+02 0.000E+00 0.000E+00 0.000E+00 0.000E+00    4       60        0        0
     60  1.000E+02 0.000E+00 0.000E+00 0.000E+00 0.000E+00    4       61        0        0
     61  1.000E+02 0.000E+00 0.000E+00 0.000E+00 0.000E+00    4       62        0        0
     62  1.000E+02 0.000E+00 0.000E+00 0.000E+00 0.000E+00    4       63        0        0
     63  1.000E+02 0.000E+00 0.000E+00 0.000E+00 0.000E+00    4       64        0        0
     64  1.000E+02 0.000E+00 0.000E+00 0.000E+00 0.000E+00    4       65        0        0
     65  1.000E+02 0.000E+00 0.000E+00 0.000E+00 0.000E+00    4       66        0        0
     66  1.000E+02 0.000E+00 0.000E+00 0.000E+00 0.000E+00    4       67        0        0
     67  1.000E+02 0.000E+00 0.000E+00 0.000E+00 0.000E+00    4       68        0        0
     68  1.000E+02 0.000E+00 0.000E+00 0.000E+00 0.000E+00    4       69        0        0
     69  1.000E+02 0.000E+00 0.000E+00 0.000E+00 0.000E+00    4       70        0        0
     70  1.000E+02 0.000E+00 0.000E+00 0.000E+00 0.000E+00    4       71        0        0
     71  1.000E+02 0.000E+00 0.000E+00 0.000E+00 0.000E+00    4       72        0        0
     72  1.000E+02 0.000E+00 0.000E+00 0.000E+00 0.000E+00    4       73        0        0
     73  1.000E+02 0.000E+00 0.000E+00 0.000E+00 0.000E+00    4       74        0        0
     74  1.000E+02 0.000E+00 0.000E+00 0.000E+00 0.000E+00    4       75        0        0
     75  1.000E+02 0.000E+00 0.000E+00 0.000E+00 0.000E+00    4       76        0        0
     76  1.000E+02 0.000E+00 0.000E+00 0.000E+00 0.000E+00    4       77        0        0
     77  1.000E+02 0.000E+00 0.000E+00 0.000E+00 0.000E+00    4       78        0        0
     78  1.000E+02 0.000E+00 0.000E+00 0.000E+00 0.000E+00    4       79        0        0
     79  1.000E+02 0.000E+00 0.000E+00 0.000E+00 0.000E+00    4       80        0        0
     80  1.000E+02 0.000E+00 0.000E+00 0.000E+00 0.000E+00    4       81        0        0
     81  1.000E+02 0.000E+00 0.000E+00 0.000E+00 0.000E+00    4       82        0        0
     82  1.000E+02 0.000E+00 0.000E+00 0.000E+00 0.000E+00    4       83        0        0
     83  1.000E+02 0.000E+00 0.000E+00 0.000E+00 0.000E+00    4       84        0        0
     84  1.000E+02 0.000E+00 0.000E+00 0.000E+00 0.000E+00    4       85        0        0
     85  2.000E+02 0.000E+00 0.000E+00 0.000E+00 0.000E+00    4       86        0        0
     86  1.000E+02 0.000E+00 0.000E+00 0.000E+00 0.000E+00    4       87        0        0
     87  1.000E+02 0.000E+00 0.000E+00 0.000E+00 0.000E+00    4       88        0        0
     88  1.000E+02 0.000E+00 0.000E+00 0.000E+00 0.000E+00    4       89        0        0
     89  1.000E+02 0.000E+00 0.000E+00 0.000E+00 0.000E+00    4       90        0        0
     90  1.000E+02 0.000E+00 0.000E+00 0.000E+00 0.000E+00    4       91        0        0
     91  1.000E+02 0.000E+00 0.000E+00 0.000E+00 0.000E+00    4       92        0        0
     92  1.000E+02 0.000E+00 0.000E+00 0.000E+00 0.000E+00    4       93        0        0
     93  1.000E+02 0.000E+00 0.000E+00 0.000E+00 0.000E+00    4       94        0        0
     94  1.000E+02 0.000E+00 0.000E+00 0.000E+00 0.000E+00    4       95        0        0
     95  1.000E+02 0.000E+00 0.000E+00 0.000E+00 0.000E+00    4       96        0        0
     96  1.000E+02 0.000E+00 0.000E+00 0.000E+00 0.000E+00    4       97        0        0
     97  1.000E+02 0.000E+00 0.000E+00 0.000E+00 0.000E+00    4       98        0        0
     98  1.000E+02 0.000E+00 0.000E+00 0.000E+00 0.000E+00    4       99        0        0
     99  1.000E+02 0.000E+00 0.000E+00 0.000E+00 0.000E+00    4      100        0        0
    100  1.000E+02 0.000E+00 0.000E+00 0.000E+00 0.000E+00    4      101        0        0
    101  1.000E+02 0.000E+00 0.000E+00 0.000E+00 0.000E+00    4      102        0        0
    102  1.000E+02 0.000E+00 0.000E+00 0.000E+00 0.000E+00    4      103        0        0
    103  1.000E+02 0.000E+00 0.000E+00 0.000E+00 0.000E+00    4      104        0        0
    104  1.000E+02 0.000E+00 0.000E+00 0.000E+00 0.000E+00    4      105        0        0
    105  1.000E+02 0.000E+00 0.000E+00 0.000E+00 0.000E+00    4      106        0        0
    106  1.000E+02 0.000E+00 0.000E+00 0.000E+00 0.000E+00    4      107        0        0
    107  1.000E+02 0.000E+00 0.000E+00 0.000E+00 0.000E+00    4      108        0        0
    108  1.000E+02 0.000E+00 0.000E+00 0.000E+00 0.000E+00    4      109        0        0
    109  1.000E+02 0.000E+00 0.000E+00 0.000E+00 0.000E+00    4      110        0        0
    110  1.000E+02 0.000E+00 0.000E+00 0.000E+00 0.000E+00    4      111        0        0
    111  1.000E+02 0.000E+00 0.000E+00 0.000E+00 0.000E+00    4      112        0        0
    112  1.000E+02 0.000E+00 0.000E+00 0.000E+00 0.000E+00    4      113        0        0
    113  1.000E+02 0.000E+00 0.000E+00 0.000E+00 0.000E+00    4      114        0        0
    114  1.000E+02 0.000E+00 0.000E+00 0.000E+00 0.000E+00    4      115        0        0
    115  1.000E+02 0.000E+00 0.000E+00 0.000E+00 0.000E+00    4      116        0        0
    116  1.000E+02 0.000E+00 0.000E+00 0.000E+00 0.000E+00    4      117        0        0
    117  1.000E+02 0.000E+00 0.000E+00 0.000E+00 0.000E+00    4      118        0        0
    118  1.000E+02 0.000E+00 0.000E+00 0.000E+00 0.000E+00    4      119        0        0
    119  1.000E+02 0.000E+00 0.000E+00 0.000E+00 0.000E+00    4      120        0        0
    120  1.000E+02 0.000E+00 0.000E+00 0.000E+00 0.000E+00    4      121        0        0
    121  1.000E+02 0.000E+00 0.000E+00 0.000E+00 0.000E+00    4      122        0        0
    122  1.000E+02 0.000E+00 0.000E+00 0.000E+00 0.000E+00    4      123        0        0
    123  1.000E+02 0.000E+00 0.000E+00 0.000E+00 0.000E+00    4      124        0        0
    124  1.000E+02 0.000E+00 0.000E+00 0.000E+00 0.000E+00    4      125        0        0
    125  1.000E+02 0.000E+00 0.000E+00 0.000E+00 0.000E+00    4      126        0        0
    126  1.000E+02 0.000E+00 0.000E+00 0.000E+00 0.000E+00    4      127        0        0
    127  1.000E+02 0.000E+00 0.000E+00 0.000E+00 0.000E+00    4      128        0        0
    128  1.000E+02 0.000E+00 0.000E+00 0.000E+00 0.000E+00    4      129        0        0
    129  1.000E+02 0.000E+00 0.000E+00 0.000E+00 0.000E+00    4      130        0        0
    130  1.000E+02 0.000E+00 0.000E+00 0.000E+00 0.000E+00    4      131        0        0
    131  1.000E+02 0.000E+00 0.000E+00 0.000E+00 0.000E+00    4      132        0        0
    132  1.000E+02 0.000E+00 0.000E+00 0.000E+00 0.000E+00    4      133        0        0
    133  1.000E+02 0.000E+00 0.000E+00 0.000E+00 0.000E+00    4      134        0        0
    134  1.000E+02 0.000E+00 0.000E+00 0.000E+00 0.000E+00    4      135        0        0
    135  1.000E+02 0.000E+00 0.000E+00 0.000E+00 0.000E+00    4      136        0        0
    136  1.000E+02 0.000E+00 0.000E+00 0.000E+00 0.000E+00    4      137        0        0
    137  1.000E+02 0.000E+00 0.000E+00 0.000E+00 0.000E+00    4      138        0        0
    138  1.000E+02 0.000E+00 0.000E+00 0.000E+00 0.000E+00    4      139        0        0
    139  1.000E+02 0.000E+00 0.000E+00 0.000E+00 0.000E+00    4      140        0        0
    140  1.000E+02 0.000E+00 0.000E+00 0.000E+00 0.000E+00    4      141        0        0
    141  1.000E+02 0.000E+00 0.000E+00 0.000E+00 0.000E+00    4      142        0        0
    142  1.000E+02 0.000E+00 0.000E+00 0.000E+00 0.000E+00    4      143        0        0
    143  1.000E+02 0.000E+00 0.000E+00 0.000E+00 0.000E+00    4      144        0        0
    144  1.000E+02 0.000E+00 0.000E+00 0.000E+00 0.000E+00    4      145        0        0
    145  1.000E+02 0.000E+00 0.000E+00 0.000E+00 0.000E+00    4      146        0        0
    146  2.000E+02 0.000E+00 0.000E+00 0.000E+00 0.000E+00    4      147        0        0
    147  1.000E+02 0.000E+00 0.000E+00 0.000E+00 0.000E+00    4      148        0        0
    148  1.000E+02 0.000E+00 0.000E+00 0.000E+00 0.000E+00    4      149        0        0
    149  1.000E+02 0.000E+00 0.000E+00 0.000E+00 0.000E+00    4      150        0        0
    150  1.000E+02 0.000E+00 0.000E+00 0.000E+00 0.000E+00    4      151        0        0
    151  1.000E+02 0.000E+00 0.000E+00 0.000E+00 0.000E+00    4      152        0        0
    152  1.000E+02 0.000E+00 0.000E+00 0.000E+00 0.000E+00    4      153        0        0
    153  1.000E+02 0.000E+00 0.000E+00 0.000E+00 0.000E+00    4      154        0        0
    154  1.000E+02 0.000E+00 0.000E+00 0.000E+00 0.000E+00    4      155        0        0
    155  1.000E+02 0.000E+00 0.000E+00 0.000E+00 0.000E+00    4      156        0        0
    156  2.000E+02 0.000E+00 0.000E+00 0.000E+00 0.000E+00    4      157        0        0
    157  1.000E+02 0.000E+00 0.000E+00 0.000E+00 0.000E+00    4      158        0        0
    158  1.000E+02 0.000E+00 0.000E+00 0.000E+00 0.000E+00    4      159        0        0
    159  1.000E+02 0.000E+00 0.000E+00 0.000E+00 0.000E+00    4      160        0        0
    160  1.000E+02 0.000E+00 0.000E+00 0.000E+00 0.000E+00    4      161        0        0
    161  1.000E+02 0.000E+00 0.000E+00 0.000E+00 0.000E+00    4      162        0        0
    162  1.000E+02 0.000E+00 0.000E+00 0.000E+00 0.000E+00    4      163        0        0
    163  1.000E+02 0.000E+00 0.000E+00 0.000E+00 0.000E+00    4      164        0        0
    164  2.000E+02 0.000E+00 0.000E+00 0.000E+00 0.000E+00    4      165        0        0
    165  1.000E+02 0.000E+00 0.000E+00 0.000E+00 0.000E+00    4      166        0        0
    166  1.000E+02 0.000E+00 0.000E+00 0.000E+00 0.000E+00    4      167        0        0
    167  1.000E+02 0.000E+00 0.000E+00 0.000E+00 0.000E+00    4      168        0        0
    168  1.000E+02 0.000E+00 0.000E+00 0.000E+00 0.000E+00    4      169        0        0
    169  1.000E+02 0.000E+00 0.000E+00 0.000E+00 0.000E+00    4      170        0        0
    170  1.000E+02 0.000E+00 0.000E+00 0.000E+00 0.000E+00    4      171        0        0
    171  1.000E+02 0.000E+00 0.000E+00 0.000E+00 0.000E+00    4      172        0        0
    172  1.000E+02 0.000E+00 0.000E+00 0.000E+00 0.000E+00    4      173        0        0
    173  1.000E+02 0.000E+00 0.000E+00 0.000E+00 0.000E+00    4      174        0        0
    174  1.000E+02 0.000E+00 0.000E+00 0.000E+00 0.000E+00    4      175        0        0
    175  1.000E+02 0.000E+00 0.000E+00 0.000E+00 0.000E+00    4      176        0        0
    176  1.000E+02 0.000E+00 0.000E+00 0.000E+00 0.000E+00    4      177        0        0
    177  1.000E+02 0.000E+00 0.000E+00 0.000E+00 0.000E+00    4      178        0        0
    178  1.000E+02 0.000E+00 0.000E+00 0.000E+00 0.000E+00    4      179        0        0
    179  1.000E+02 0.000E+00 0.000E+00 0.000E+00 0.000E+00    4      180        0        0
    180  1.000E+02 0.000E+00 0.000E+00 0.000E+00 0.000E+00    4      181        0        0
    181  1.000E+02 0.000E+00 0.000E+00 0.000E+00 0.000E+00    4      182        0        0
    182  1.000E+02 0.000E+00 0.000E+00 0.000E+00 0.000E+00    4      183        0        0
    183  1.000E+02 0.000E+00 0.000E+00 0.000E+00 0.000E+00    4      184        0        0
    184  1.000E+02 0.000E+00 0.000E+00 0.000E+00 0.000E+00    4      185        0        0
    185  1.000E+02 0.000E+00 0.000E+00 0.000E+00 0.000E+00    4      186        0        0
    186  1.000E+02 0.000E+00 0.000E+00 0.000E+00 0.000E+00    4      187        0        0
    187  1.000E+02 0.000E+00 0.000E+00 0.000E+00 0.000E+00    4      188        0        0
    188  1.000E+02 0.000E+00 0.000E+00 0.000E+00 0.000E+00    4      189        0        0
    189  1.000E+02 0.000E+00 0.000E+00 0.000E+00 0.000E+00    4      190        0        0
    190  1.000E+02 0.000E+00 0.000E+00 0.000E+00 0.000E+00    4      191        0        0
    191  1.000E+02 0.000E+00 0.000E+00 0.000E+00 0.000E+00    4      192        0        0
    192  1.000E+02 0.000E+00 0.000E+00 0.000E+00 0.000E+00    4      193        0        0
    193  1.000E+02 0.000E+00 0.000E+00 0.000E+00 0.000E+00    4      194        0        0
    194  1.000E+02 0.000E+00 0.000E+00 0.000E+00 0.000E+00    4      195        0        0
    195  1.000E+02 0.000E+00 0.000E+00 0.000E+00 0.000E+00    4      196        0        0
    196  1.000E+02 0.000E+00 0.000E+00 0.000E+00 0.000E+00    4      197        0        0
    197  1.000E+02 0.000E+00 0.000E+00 0.000E+00 0.000E+00    4      198        0        0
    198  1.000E+02 0.000E+00 0.000E+00 0.000E+00 0.000E+00    4      199        0        0
    199  1.000E+02 0.000E+00 0.000E+00 0.000E+00 0.000E+00    4      200        0        0
    200  2.000E+02 0.000E+00 0.000E+00 0.000E+00 0.000E+00    4      201        0        0
    201  1.000E+02 0.000E+00 0.000E+00 0.000E+00 0.000E+00    4      202        0        0
    202  1.000E+02 0.000E+00 0.000E+00 0.000E+00 0.000E+00    4      203        0        0
    203  1.000E+02 0.000E+00 0.000E+00 0.000E+00 0.000E+00    4      204        0        0
    204  2.000E+02 0.000E+00 0.000E+00 0.000E+00 0.000E+00    4      205        0        0
    205  1.000E+02 0.000E+00 0.000E+00 0.000E+00 0.000E+00    4      206        0        0
    206  1.000E+02 0.000E+00 0.000E+00 0.000E+00 0.000E+00    4      207        0        0
    207  1.000E+02 0.000E+00 0.000E+00 0.000E+00 0.000E+00    4      208        0        0
    208  1.000E+02 0.000E+00 0.000E+00 0.000E+00 0.000E+00    4      209        0        0
    209  1.000E+02 0.000E+00 0.000E+00 0.000E+00 0.000E+00    4      210        0        0
    210  1.000E+02 0.000E+00 0.000E+00 0.000E+00 0.000E+00    4      211        0        0
    211  1.000E+02 0.000E+00 0.000E+00 0.000E+00 0.000E+00    4        0        0        0

 STREAMFLOW RELATION WITH DEPTH AND WIDTH IS BASED ON TABULATED VALUES

  SEGMENT NO.   DEPTH        WIDTH        MANNING      AREA          WET PERIM

          1     0.0000E+00   0.0000E+00   1.5000E-02   0.0000E+00   0.0000E+00
          1     1.0000E-01   8.5500E+00   1.5000E-02   3.1400E-01   9.0180E+00
          1     2.0000E-01   1.7100E+01   1.5000E-02   1.5920E+00   1.8209E+01
          1     3.0000E-01   2.7250E+01   1.5000E-02   3.7970E+00   3.0137E+01
          1     4.0000E-01   3.3850E+01   1.5000E-02   6.8870E+00   3.7818E+01
          1     5.0000E-01   3.9900E+01   1.5000E-02   1.0573E+01   4.4045E+01
          1     7.0000E-01   4.8900E+01   1.5000E-02   1.9885E+01   5.2140E+01
          1     1.0000E+00   5.4700E+01   1.5000E-02   3.5277E+01   6.3289E+01
          1     1.1000E+00   6.7500E+01   1.5000E-02   4.1381E+01   8.3480E+01
          1     1.2000E+00   7.7550E+01   1.5000E-02   4.8588E+01   9.5080E+01
          1     1.3000E+00   9.2250E+01   1.5000E-02   5.7244E+01   1.1139E+02
          1     1.4000E+00   1.0385E+02   1.5000E-02   6.7012E+01   1.3004E+02
          1     1.5000E+00   1.2470E+02   1.5000E-02   7.8647E+01   1.4104E+02
          1     2.0000E+00   1.9000E+02   1.5000E-02   1.6121E+02   1.9984E+02
          1     2.9000E+00   2.7675E+02   1.5000E-02   3.6455E+02   3.0469E+02
          2     0.0000E+00   0.0000E+00   1.5000E-02   0.0000E+00   0.0000E+00
          2     1.0000E-01   2.4000E+00   1.5000E-02   1.3700E-01   2.5770E+00
          2     2.0000E-01   3.4500E+00   1.5000E-02   3.9900E-01   4.1570E+00
          2     3.0000E-01   1.3350E+01   1.5000E-02   1.2420E+00   1.4544E+01
          2     4.0000E-01   2.5800E+01   1.5000E-02   3.0430E+00   2.8981E+01
          2     5.0000E-01   3.3450E+01   1.5000E-02   6.0790E+00   3.7516E+01
          2     7.0000E-01   4.1000E+01   1.5000E-02   1.3583E+01   4.6945E+01
          2     1.0000E+00   5.5500E+01   1.5000E-02   2.8098E+01   6.4348E+01
          2     1.1000E+00   5.8000E+01   1.5000E-02   3.3756E+01   6.9963E+01
          2     1.2000E+00   6.1700E+01   1.5000E-02   3.9841E+01   7.4873E+01
          2     1.3000E+00   6.5200E+01   1.5000E-02   4.6021E+01   7.7054E+01
          2     1.4000E+00   7.1450E+01   1.5000E-02   5.2919E+01   8.6986E+01
          2     1.5000E+00   8.8250E+01   1.5000E-02   6.0836E+01   1.1079E+02
          2     2.0000E+00   1.5355E+02   1.5000E-02   1.2246E+02   1.7570E+02
          2     3.0000E+00   2.2965E+02   1.5000E-02   3.1188E+02   2.3819E+02
          3     0.0000E+00   0.0000E+00   1.5000E-02   0.0000E+00   0.0000E+00
          3     1.0000E-01   3.9000E+00   1.5000E-02   1.7600E-01   4.2290E+00
          3     2.0000E-01   6.8000E+00   1.5000E-02   7.0900E-01   7.5630E+00
          3     3.0000E-01   1.2450E+01   1.5000E-02   1.6060E+00   1.4205E+01
          3     4.0000E-01   2.2500E+01   1.5000E-02   3.3940E+00   2.6453E+01
          3     5.0000E-01   3.3750E+01   1.5000E-02   6.2500E+00   3.8846E+01
          3     7.0000E-01   4.4700E+01   1.5000E-02   1.4308E+01   4.9473E+01
          3     1.0000E+00   5.3700E+01   1.5000E-02   2.9149E+01   6.2667E+01
          3     1.1000E+00   5.5500E+01   1.5000E-02   3.4651E+01   6.7580E+01
          3     1.2000E+00   5.9650E+01   1.5000E-02   4.0507E+01   7.0672E+01
          3     1.3000E+00   6.3850E+01   1.5000E-02   4.6640E+01   7.8366E+01
          3     1.4000E+00   7.0500E+01   1.5000E-02   5.3285E+01   9.4400E+01
          3     1.5000E+00   8.4500E+01   1.5000E-02   6.1075E+01   1.1014E+02
          3     2.0000E+00   1.7975E+02   1.5000E-02   1.2461E+02   1.9436E+02
          3     2.9750E+00   2.2630E+02   1.5000E-02   3.1668E+02   2.4997E+02
          4     0.0000E+00   0.0000E+00   1.5000E-02   0.0000E+00   0.0000E+00
          4     1.0000E-01   3.6000E+00   1.5000E-02   2.5400E-01   3.7730E+00
          4     2.0000E-01   6.4000E+00   1.5000E-02   7.0200E-01   7.8460E+00
          4     3.0000E-01   1.2800E+01   1.5000E-02   1.7540E+00   1.5126E+01
          4     4.0000E-01   2.1850E+01   1.5000E-02   3.4620E+00   2.6632E+01
          4     5.0000E-01   4.2200E+01   1.5000E-02   6.9190E+00   4.6462E+01
          4     7.0000E-01   5.3450E+01   1.5000E-02   1.6552E+01   5.9738E+01
          4     1.0000E+00   6.1750E+01   1.5000E-02   3.3562E+01   7.1012E+01
          4     1.1000E+00   6.4200E+01   1.5000E-02   3.9822E+01   7.4519E+01
          4     1.2000E+00   6.7350E+01   1.5000E-02   4.6526E+01   7.8584E+01
          4     1.3000E+00   7.3750E+01   1.5000E-02   5.3471E+01   9.0972E+01
          4     1.4000E+00   9.0450E+01   1.5000E-02   6.1531E+01   1.2549E+02
          4     1.5000E+00   1.1170E+02   1.5000E-02   7.1691E+01   1.3750E+02
          4     2.0000E+00   1.6300E+02   1.5000E-02   1.4390E+02   1.6966E+02
          4     3.0000E+00   2.0150E+02   1.5000E-02   3.2398E+02   2.1025E+02
          5     0.0000E+00   0.0000E+00   1.5000E-02   0.0000E+00   0.0000E+00
          5     1.0000E-01   4.1000E+00   1.5000E-02   1.7000E-01   4.4280E+00
          5     2.0000E-01   7.1500E+00   1.5000E-02   7.0500E-01   8.2610E+00
          5     3.0000E-01   2.0250E+01   1.5000E-02   1.9980E+00   2.4772E+01
          5     4.0000E-01   4.1900E+01   1.5000E-02   5.0710E+00   4.8886E+01
          5     5.0000E-01   5.5750E+01   1.5000E-02   1.0023E+01   6.4683E+01
          5     7.0000E-01   7.6450E+01   1.5000E-02   2.3632E+01   8.6622E+01
          5     1.0000E+00   9.6650E+01   1.5000E-02   4.9774E+01   1.1147E+02
          5     1.1000E+00   1.1025E+02   1.5000E-02   6.0097E+01   1.3097E+02
          5     1.2000E+00   1.2505E+02   1.5000E-02   7.1951E+01   1.3357E+02
          5     1.3000E+00   1.3095E+02   1.5000E-02   8.4828E+01   1.4013E+02
          5     1.4000E+00   1.3575E+02   1.5000E-02   9.7794E+01   1.4557E+02
          5     1.5000E+00   1.4080E+02   1.5000E-02   1.1188E+02   1.5132E+02
          5     2.0000E+00   2.0435E+02   1.5000E-02   1.6174E+02   2.1839E+02
          5     2.7250E+00   2.0435E+02   1.5000E-02   3.0989E+02   2.1984E+02
          6     0.0000E+00   0.0000E+00   1.5000E-02   0.0000E+00   0.0000E+00
          6     1.0000E-01   5.5000E+00   1.5000E-02   3.5700E-01   5.8050E+00
          6     2.0000E-01   1.2050E+01   1.5000E-02   1.1750E+00   1.3519E+01
          6     3.0000E-01   2.1350E+01   1.5000E-02   2.8870E+00   2.3673E+01
          6     4.0000E-01   3.5200E+01   1.5000E-02   5.6220E+00   4.0662E+01
          6     5.0000E-01   5.7500E+01   1.5000E-02   1.0276E+01   6.2607E+01
          6     7.0000E-01   7.0900E+01   1.5000E-02   2.3451E+01   7.6939E+01
          6     1.0000E+00   8.4600E+01   1.5000E-02   4.6346E+01   9.1394E+01
          6     1.1000E+00   8.7000E+01   1.5000E-02   5.4644E+01   9.4468E+01
          6     1.2000E+00   9.2650E+01   1.5000E-02   6.3801E+01   1.0784E+02
          6     1.3000E+00   1.0730E+02   1.5000E-02   7.3807E+01   1.2378E+02
          6     1.4000E+00   1.1695E+02   1.5000E-02   8.5160E+01   1.3199E+02
          6     1.5000E+00   1.3220E+02   1.5000E-02   9.7590E+01   1.4534E+02
          6     2.0000E+00   1.6255E+02   1.5000E-02   1.7124E+02   1.7607E+02
          6     2.8250E+00   2.2835E+02   1.5000E-02   3.3554E+02   2.4446E+02
          7     0.0000E+00   0.0000E+00   1.5000E-02   0.0000E+00   0.0000E+00
          7     1.0000E-01   1.2700E+01   1.5000E-02   5.6400E-01   1.3342E+01
          7     2.0000E-01   2.8100E+01   1.5000E-02   2.6720E+00   3.0267E+01
          7     3.0000E-01   3.9850E+01   1.5000E-02   6.1550E+00   4.2739E+01
          7     4.0000E-01   4.4850E+01   1.5000E-02   1.0371E+01   4.8069E+01
          7     5.0000E-01   5.1250E+01   1.5000E-02   1.5175E+01   5.5402E+01
          7     7.0000E-01   5.9900E+01   1.5000E-02   2.6210E+01   6.4661E+01
          7     1.0000E+00   7.8100E+01   1.5000E-02   4.6521E+01   9.4856E+01
          7     1.1000E+00   9.2650E+01   1.5000E-02   5.5178E+01   1.1125E+02
          7     1.2000E+00   1.0860E+02   1.5000E-02   6.5361E+01   1.2904E+02
          7     1.3000E+00   1.2510E+02   1.5000E-02   7.6972E+01   1.4218E+02
          7     1.4000E+00   1.4100E+02   1.5000E-02   9.0310E+01   1.6216E+02
          7     1.5000E+00   1.6075E+02   1.5000E-02   1.0548E+02   1.8934E+02
          7     2.0000E+00   2.7735E+02   1.5000E-02   2.1119E+02   2.9383E+02
          7     2.0500E+00   2.7735E+02   1.5000E-02   2.2506E+02   2.9393E+02
          8     0.0000E+00   0.0000E+00   1.5000E-02   0.0000E+00   0.0000E+00
          8     1.0000E-01   1.9500E+00   1.5000E-02   1.1400E-01   2.1170E+00
          8     2.0000E-01   5.2500E+00   1.5000E-02   4.1600E-01   5.9770E+00
          8     3.0000E-01   1.1100E+01   1.5000E-02   1.1780E+00   1.3350E+01
          8     4.0000E-01   2.5200E+01   1.5000E-02   3.0430E+00   2.9027E+01
          8     5.0000E-01   3.7000E+01   1.5000E-02   6.2540E+00   4.2849E+01
          8     7.0000E-01   4.9100E+01   1.5000E-02   1.5141E+01   5.4979E+01
          8     1.0000E+00   6.2200E+01   1.5000E-02   3.1681E+01   7.4805E+01
          8     1.1000E+00   6.8150E+01   1.5000E-02   3.8233E+01   7.9948E+01
          8     1.2000E+00   7.8650E+01   1.5000E-02   4.5568E+01   9.8748E+01
          8     1.3000E+00   9.0300E+01   1.5000E-02   5.4015E+01   1.1220E+02
          8     1.4000E+00   1.0495E+02   1.5000E-02   6.3662E+01   1.3684E+02
          8     1.5000E+00   1.2875E+02   1.5000E-02   7.5442E+01   1.5121E+02
          8     2.0000E+00   2.5010E+02   1.5000E-02   1.5903E+02   2.6309E+02
          8     2.2500E+00   2.5010E+02   1.5000E-02   2.2155E+02   2.6359E+02
          9     0.0000E+00   0.0000E+00   1.5000E-02   0.0000E+00   0.0000E+00
          9     1.0000E-01   3.0500E+00   1.5000E-02   1.7700E-01   3.2190E+00
          9     2.0000E-01   6.7500E+00   1.5000E-02   6.4500E-01   7.8680E+00
          9     3.0000E-01   1.6550E+01   1.5000E-02   1.8940E+00   1.8820E+01
          9     4.0000E-01   3.0300E+01   1.5000E-02   4.1430E+00   3.3471E+01
          9     5.0000E-01   3.3800E+01   1.5000E-02   7.3600E+00   3.6981E+01
          9     7.0000E-01   4.1050E+01   1.5000E-02   1.4788E+01   4.6970E+01
          9     1.0000E+00   5.7200E+01   1.5000E-02   2.8913E+01   7.7768E+01
          9     1.1000E+00   6.8650E+01   1.5000E-02   3.5247E+01   9.3654E+01
          9     1.2000E+00   8.1100E+01   1.5000E-02   4.2670E+01   1.1571E+02
          9     1.3000E+00   1.0520E+02   1.5000E-02   5.1802E+01   1.5829E+02
          9     1.4000E+00   1.2745E+02   1.5000E-02   6.3442E+01   1.7132E+02
          9     1.5000E+00   1.4755E+02   1.5000E-02   7.7333E+01   1.7706E+02
          9     2.0000E+00   2.6740E+02   1.5000E-02   1.5795E+02   2.8056E+02
          9     2.7000E+00   2.6740E+02   1.5000E-02   3.4513E+02   2.8196E+02
         10     0.0000E+00   0.0000E+00   1.5000E-02   0.0000E+00   0.0000E+00
         10     1.0000E-01   1.1750E+01   1.5000E-02   4.8600E-01   1.2239E+01
         10     2.0000E-01   2.6650E+01   1.5000E-02   2.3100E+00   2.7039E+01
         10     3.0000E-01   3.0500E+01   1.5000E-02   5.1410E+00   3.2184E+01
         10     4.0000E-01   4.1350E+01   1.5000E-02   8.6430E+00   4.5217E+01
         10     5.0000E-01   5.2850E+01   1.5000E-02   1.3473E+01   5.6841E+01
         10     7.0000E-01   6.3400E+01   1.5000E-02   2.5060E+01   7.0579E+01
         10     1.0000E+00   9.8250E+01   1.5000E-02   4.9089E+01   1.1495E+02
         10     1.1000E+00   1.1025E+02   1.5000E-02   5.9584E+01   1.2654E+02
         10     1.2000E+00   1.2185E+02   1.5000E-02   7.1183E+01   1.3276E+02
         10     1.3000E+00   1.3060E+02   1.5000E-02   8.3797E+01   1.5004E+02
         10     1.4000E+00   1.4915E+02   1.5000E-02   9.7832E+01   1.7563E+02
         10     1.5000E+00   1.6155E+02   1.5000E-02   1.1341E+02   1.7813E+02
         10     2.0000E+00   2.2825E+02   1.5000E-02   2.1036E+02   2.3835E+02
         10     2.0500E+00   2.2825E+02   1.5000E-02   2.2177E+02   2.3845E+02
         11     0.0000E+00   0.0000E+00   1.5000E-02   0.0000E+00   0.0000E+00
         11     1.0000E-01   9.1500E+00   1.5000E-02   3.0900E-01   9.9510E+00
         11     2.0000E-01   2.0100E+01   1.5000E-02   1.7660E+00   2.2323E+01
         11     3.0000E-01   2.6700E+01   1.5000E-02   4.1350E+00   2.9647E+01
         11     4.0000E-01   4.1700E+01   1.5000E-02   7.3260E+00   4.8004E+01
         11     5.0000E-01   6.3200E+01   1.5000E-02   1.2607E+01   6.8488E+01
         11     7.0000E-01   7.1050E+01   1.5000E-02   2.6190E+01   7.8609E+01
         11     1.0000E+00   9.2000E+01   1.5000E-02   5.0706E+01   1.0726E+02
         11     1.1000E+00   9.8650E+01   1.5000E-02   6.0223E+01   1.1567E+02
         11     1.2000E+00   1.1430E+02   1.5000E-02   7.0870E+01   1.4239E+02
         11     1.3000E+00   1.2635E+02   1.5000E-02   8.2991E+01   1.4922E+02
         11     1.4000E+00   1.4745E+02   1.5000E-02   9.6422E+01   1.7478E+02
         11     1.5000E+00   1.5630E+02   1.5000E-02   1.1153E+02   1.7680E+02
         11     2.0000E+00   2.6640E+02   1.5000E-02   1.9059E+02   2.7878E+02
         11     2.5750E+00   2.6640E+02   1.5000E-02   3.4377E+02   2.7993E+02
         12     0.0000E+00   0.0000E+00   1.5000E-02   0.0000E+00   0.0000E+00
         12     1.0000E-01   1.5450E+01   1.5000E-02   7.6500E-01   1.6263E+01
         12     2.0000E-01   2.7200E+01   1.5000E-02   3.0650E+00   2.8691E+01
         12     3.0000E-01   3.7050E+01   1.5000E-02   6.2610E+00   3.9988E+01
         12     4.0000E-01   4.4950E+01   1.5000E-02   1.0376E+01   4.9723E+01
         12     5.0000E-01   5.1600E+01   1.5000E-02   1.5237E+01   5.7731E+01
         12     7.0000E-01   6.7600E+01   1.5000E-02   2.7123E+01   7.6448E+01
         12     1.0000E+00   9.0550E+01   1.5000E-02   5.0642E+01   1.0552E+02
         12     1.1000E+00   1.0335E+02   1.5000E-02   6.0251E+01   1.2844E+02
         12     1.2000E+00   1.2735E+02   1.5000E-02   7.1629E+01   1.6196E+02
         12     1.3000E+00   1.4660E+02   1.5000E-02   8.5543E+01   1.6631E+02
         12     1.4000E+00   1.6710E+02   1.5000E-02   1.0112E+02   1.8288E+02
         12     1.5000E+00   1.7990E+02   1.5000E-02   1.1851E+02   1.9087E+02
         12     2.0000E+00   2.2225E+02   1.5000E-02   2.1891E+02   2.2851E+02
         12     3.0000E+00   2.9305E+02   1.5000E-02   4.5780E+02   3.1640E+02
         13     0.0000E+00   0.0000E+00   1.5000E-02   0.0000E+00   0.0000E+00
         13     1.0000E-01   1.6350E+01   1.5000E-02   5.7500E-01   1.7007E+01
         13     2.0000E-01   3.3450E+01   1.5000E-02   2.9110E+00   3.5632E+01
         13     3.0000E-01   4.4700E+01   1.5000E-02   6.8990E+00   4.8171E+01
         13     4.0000E-01   5.4950E+01   1.5000E-02   1.1812E+01   5.8971E+01
         13     5.0000E-01   6.0800E+01   1.5000E-02   1.7672E+01   6.5991E+01
         13     7.0000E-01   7.5650E+01   1.5000E-02   3.1582E+01   8.1719E+01
         13     1.0000E+00   8.2700E+01   1.5000E-02   5.5103E+01   9.1554E+01
         13     1.1000E+00   8.7600E+01   1.5000E-02   6.3821E+01   9.7416E+01
         13     1.2000E+00   9.1750E+01   1.5000E-02   7.2708E+01   1.0491E+02
         13     1.3000E+00   1.0100E+02   1.5000E-02   8.2302E+01   1.2295E+02
         13     1.4000E+00   1.1595E+02   1.5000E-02   9.3160E+01   1.3692E+02
         13     1.5000E+00   1.3825E+02   1.5000E-02   1.0584E+02   1.5778E+02
         13     2.0000E+00   2.1025E+02   1.5000E-02   1.9429E+02   2.2020E+02
         13     3.0000E+00   2.9950E+02   1.5000E-02   4.2498E+02   3.1364E+02
         14     0.0000E+00   0.0000E+00   1.5000E-02   0.0000E+00   0.0000E+00
         14     1.0000E-01   3.7500E+00   1.5000E-02   1.4100E-01   4.2220E+00
         14     2.0000E-01   8.3000E+00   1.5000E-02   7.9200E-01   9.0300E+00
         14     3.0000E-01   1.6500E+01   1.5000E-02   2.0380E+00   1.9360E+01
         14     4.0000E-01   3.0800E+01   1.5000E-02   4.4700E+00   3.3995E+01
         14     5.0000E-01   3.5150E+01   1.5000E-02   7.7330E+00   4.2167E+01
         14     7.0000E-01   6.1600E+01   1.5000E-02   1.7778E+01   7.1846E+01
         14     1.0000E+00   8.6550E+01   1.5000E-02   4.0558E+01   9.7692E+01
         14     1.1000E+00   8.9950E+01   1.5000E-02   4.9151E+01   1.0228E+02
         14     1.2000E+00   9.3700E+01   1.5000E-02   5.8561E+01   1.0727E+02
         14     1.3000E+00   9.8550E+01   1.5000E-02   6.8064E+01   1.1584E+02
         14     1.4000E+00   1.0910E+02   1.5000E-02   7.8444E+01   1.2777E+02
         14     1.5000E+00   1.2030E+02   1.5000E-02   8.9918E+01   1.3442E+02
         14     2.0000E+00   2.4870E+02   1.5000E-02   1.5779E+02   2.6723E+02
         14     2.3750E+00   2.4870E+02   1.5000E-02   2.5105E+02   2.6798E+02
         15     0.0000E+00   0.0000E+00   1.5000E-02   0.0000E+00   0.0000E+00
         15     1.0000E-01   1.1500E+00   1.5000E-02   4.8000E-02   1.4720E+00
         15     2.0000E-01   1.2400E+01   1.5000E-02   7.6900E-01   1.3855E+01
         15     3.0000E-01   3.0300E+01   1.5000E-02   2.8170E+00   3.4793E+01
         15     4.0000E-01   4.0900E+01   1.5000E-02   6.3320E+00   4.7181E+01
         15     5.0000E-01   5.1450E+01   1.5000E-02   1.0942E+01   5.6605E+01
         15     7.0000E-01   6.4400E+01   1.5000E-02   2.2414E+01   7.3264E+01
         15     1.0000E+00   9.2050E+01   1.5000E-02   4.5437E+01   1.0326E+02
         15     1.1000E+00   9.6900E+01   1.5000E-02   5.4902E+01   1.1146E+02
         15     1.2000E+00   1.0390E+02   1.5000E-02   6.5205E+01   1.2454E+02
         15     1.3000E+00   1.1765E+02   1.5000E-02   7.6305E+01   1.3501E+02
         15     1.4000E+00   1.2795E+02   1.5000E-02   8.8602E+01   1.4664E+02
         15     1.5000E+00   1.3695E+02   1.5000E-02   1.0175E+02   1.5694E+02
         15     2.0000E+00   2.4870E+02   1.5000E-02   1.7792E+02   2.6653E+02
         15     2.2500E+00   2.4870E+02   1.5000E-02   2.4009E+02   2.6703E+02
         16     0.0000E+00   0.0000E+00   1.5000E-02   0.0000E+00   0.0000E+00
         16     1.0000E-01   2.7500E+00   1.5000E-02   1.5700E-01   2.9090E+00
         16     2.0000E-01   4.7000E+00   1.5000E-02   5.1300E-01   5.0760E+00
         16     3.0000E-01   1.4000E+01   1.5000E-02   1.3930E+00   1.5150E+01
         16     4.0000E-01   2.0350E+01   1.5000E-02   3.0420E+00   2.1989E+01
         16     5.0000E-01   3.7200E+01   1.5000E-02   5.7600E+00   4.3135E+01
         16     7.0000E-01   6.5600E+01   1.5000E-02   1.5671E+01   7.6980E+01
         16     1.0000E+00   9.3500E+01   1.5000E-02   3.9234E+01   1.0643E+02
         16     1.1000E+00   1.0000E+02   1.5000E-02   4.8626E+01   1.1430E+02
         16     1.2000E+00   1.0520E+02   1.5000E-02   5.9119E+01   1.1617E+02
         16     1.3000E+00   1.1525E+02   1.5000E-02   7.0207E+01   1.3224E+02
         16     1.4000E+00   1.2470E+02   1.5000E-02   8.2086E+01   1.5124E+02
         16     1.5000E+00   1.4410E+02   1.5000E-02   9.5596E+01   1.6672E+02
         16     2.0000E+00   1.8605E+02   1.5000E-02   1.7818E+02   2.1204E+02
         16     2.8750E+00   2.6805E+02   1.5000E-02   3.8940E+02   2.8223E+02
         17     0.0000E+00   0.0000E+00   1.5000E-02   0.0000E+00   0.0000E+00
         17     1.0000E-01   9.5500E+00   1.5000E-02   4.0700E-01   1.0038E+01
         17     2.0000E-01   2.3250E+01   1.5000E-02   1.9770E+00   2.5435E+01
         17     3.0000E-01   3.9150E+01   1.5000E-02   5.1760E+00   4.2073E+01
         17     4.0000E-01   4.7800E+01   1.5000E-02   9.5250E+00   5.3270E+01
         17     5.0000E-01   6.5650E+01   1.5000E-02   1.5121E+01   7.3615E+01
         17     7.0000E-01   8.9200E+01   1.5000E-02   3.0550E+01   1.0069E+02
         17     1.0000E+00   1.0940E+02   1.5000E-02   6.0637E+01   1.2632E+02
         17     1.1000E+00   1.2070E+02   1.5000E-02   7.2229E+01   1.3942E+02
         17     1.2000E+00   1.4415E+02   1.5000E-02   8.5459E+01   1.6703E+02
         17     1.3000E+00   1.5670E+02   1.5000E-02   1.0048E+02   1.7390E+02
         17     1.4000E+00   1.6350E+02   1.5000E-02   1.1656E+02   1.7926E+02
         17     1.5000E+00   1.8320E+02   1.5000E-02   1.3375E+02   2.0596E+02
         17     2.0000E+00   2.0895E+02   1.5000E-02   2.3363E+02   2.1513E+02
         17     3.0000E+00   2.8760E+02   1.5000E-02   4.6785E+02   2.9592E+02
         18     0.0000E+00   0.0000E+00   1.5000E-02   0.0000E+00   0.0000E+00
         18     1.0000E-01   6.4500E+00   1.5000E-02   3.2100E-01   6.9390E+00
         18     2.0000E-01   1.6050E+01   1.5000E-02   1.3010E+00   1.7888E+01
         18     3.0000E-01   3.6900E+01   1.5000E-02   4.0050E+00   3.9240E+01
         18     4.0000E-01   4.3800E+01   1.5000E-02   8.0680E+00   4.6247E+01
         18     5.0000E-01   5.1400E+01   1.5000E-02   1.2699E+01   5.7385E+01
         18     7.0000E-01   8.9850E+01   1.5000E-02   2.6538E+01   9.8616E+01
         18     1.0000E+00   1.1795E+02   1.5000E-02   5.7765E+01   1.3085E+02
         18     1.1000E+00   1.3440E+02   1.5000E-02   7.0354E+01   1.5509E+02
         18     1.2000E+00   1.5255E+02   1.5000E-02   8.4707E+01   1.7758E+02
         18     1.3000E+00   1.6470E+02   1.5000E-02   1.0063E+02   1.8941E+02
         18     1.4000E+00   1.8015E+02   1.5000E-02   1.1780E+02   2.0409E+02
         18     1.5000E+00   1.9875E+02   1.5000E-02   1.3672E+02   2.1565E+02
         18     2.0000E+00   2.1765E+02   1.5000E-02   2.4147E+02   2.2387E+02
         18     2.9000E+00   2.9510E+02   1.5000E-02   4.5734E+02   3.0900E+02
         19     0.0000E+00   0.0000E+00   1.5000E-02   0.0000E+00   0.0000E+00
         19     1.0000E-01   6.8500E+00   1.5000E-02   2.9300E-01   7.3260E+00
[...]
        200     2.0000E-01   9.2000E+00   1.5000E-02   8.9900E-01   9.5880E+00
        200     3.0000E-01   1.0200E+01   1.5000E-02   1.8580E+00   1.0783E+01
        200     4.0000E-01   1.1500E+01   1.5000E-02   2.9790E+00   1.2365E+01
        200     5.0000E-01   1.3600E+01   1.5000E-02   4.2130E+00   1.4653E+01
        200     7.0000E-01   2.0100E+01   1.5000E-02   7.4570E+00   2.2231E+01
        200     1.0000E+00   2.1650E+01   1.5000E-02   1.3877E+01   2.4531E+01
        200     1.1000E+00   2.2350E+01   1.5000E-02   1.6048E+01   2.5482E+01
        200     1.2000E+00   2.2850E+01   1.5000E-02   1.8334E+01   2.8589E+01
        200     1.3000E+00   2.3200E+01   1.5000E-02   2.0441E+01   2.9372E+01
        200     1.4000E+00   2.3600E+01   1.5000E-02   2.2959E+01   3.0277E+01
        200     1.5000E+00   2.4150E+01   1.5000E-02   2.5246E+01   2.8332E+01
        200     1.8250E+00   2.7550E+01   1.5000E-02   3.3713E+01   3.2457E+01
        200     2.0000E+00   2.7550E+01   1.5000E-02   3.8534E+01   3.2807E+01
        201     0.0000E+00   0.0000E+00   1.5000E-02   0.0000E+00   0.0000E+00
        201     1.0000E-01   6.3000E+00   1.5000E-02   3.4000E-01   6.6230E+00
        201     2.0000E-01   1.2400E+01   1.5000E-02   1.2220E+00   1.3135E+01
        201     3.0000E-01   1.6500E+01   1.5000E-02   2.6650E+00   1.7123E+01
        201     4.0000E-01   1.6850E+01   1.5000E-02   4.0640E+00   1.7710E+01
        201     5.0000E-01   1.7200E+01   1.5000E-02   5.8340E+00   1.8299E+01
        201     7.0000E-01   1.7800E+01   1.5000E-02   9.1080E+00   1.9396E+01
        201     1.0000E+00   1.8850E+01   1.5000E-02   1.4874E+01   2.2211E+01
        201     1.1000E+00   1.9250E+01   1.5000E-02   1.6880E+01   2.2863E+01
        201     1.2000E+00   2.0200E+01   1.5000E-02   1.8846E+01   2.4072E+01
        201     1.3000E+00   2.1200E+01   1.5000E-02   2.0927E+01   2.7824E+01
        201     1.4000E+00   2.1950E+01   1.5000E-02   2.3075E+01   2.6267E+01
        201     1.5000E+00   2.2750E+01   1.5000E-02   2.5270E+01   2.7285E+01
        201     1.7500E+00   2.7650E+01   1.5000E-02   3.1432E+01   3.2741E+01
        201     2.0000E+00   2.7650E+01   1.5000E-02   3.8344E+01   3.3241E+01
        202     0.0000E+00   0.0000E+00   1.5000E-02   0.0000E+00   0.0000E+00
        202     1.0000E-01   2.6500E+00   1.5000E-02   1.8500E-01   2.7950E+00
        202     2.0000E-01   7.2500E+00   1.5000E-02   5.6000E-01   7.6280E+00
        202     3.0000E-01   1.6850E+01   1.5000E-02   1.7280E+00   1.7463E+01
        202     4.0000E-01   1.8450E+01   1.5000E-02   3.4820E+00   2.0811E+01
        202     5.0000E-01   2.6600E+01   1.5000E-02   5.3230E+00   2.7682E+01
        202     7.0000E-01   2.7250E+01   1.5000E-02   1.1094E+01   2.8920E+01
        202     1.0000E+00   2.8600E+01   1.5000E-02   1.9227E+01   3.1782E+01
        202     1.1000E+00   2.9100E+01   1.5000E-02   2.2233E+01   3.2538E+01
        202     1.2000E+00   2.9550E+01   1.5000E-02   2.4952E+01   3.3215E+01
        202     1.3000E+00   3.0850E+01   1.5000E-02   2.8300E+01   3.4773E+01
        202     1.4000E+00   3.1550E+01   1.5000E-02   3.1210E+01   3.5683E+01
        202     1.5000E+00   3.2550E+01   1.5000E-02   3.4595E+01   3.6918E+01
        202     1.6000E+00   3.9850E+01   1.5000E-02   3.8166E+01   4.4445E+01
        202     2.0000E+00   3.9850E+01   1.5000E-02   5.4106E+01   4.5245E+01
        203     0.0000E+00   0.0000E+00   1.5000E-02   0.0000E+00   0.0000E+00
        203     1.0000E-01   6.5000E+00   1.5000E-02   3.5200E-01   6.6650E+00
        203     2.0000E-01   9.5500E+00   1.5000E-02   1.1500E+00   9.9210E+00
        203     3.0000E-01   1.6550E+01   1.5000E-02   2.3840E+00   1.7685E+01
        203     4.0000E-01   1.9100E+01   1.5000E-02   4.0920E+00   1.9889E+01
        203     5.0000E-01   1.9500E+01   1.5000E-02   6.1670E+00   2.0578E+01
        203     7.0000E-01   2.0300E+01   1.5000E-02   1.0014E+01   2.1868E+01
        203     1.0000E+00   2.1650E+01   1.5000E-02   1.6206E+01   2.4806E+01
        203     1.1000E+00   2.2500E+01   1.5000E-02   1.8496E+01   2.5930E+01
        203     1.2000E+00   2.4400E+01   1.5000E-02   2.0966E+01   3.0431E+01
        203     1.3000E+00   2.5500E+01   1.5000E-02   2.3433E+01   2.9402E+01
        203     1.4000E+00   2.6800E+01   1.5000E-02   2.6042E+01   3.0924E+01
        203     1.5000E+00   2.7900E+01   1.5000E-02   2.8813E+01   3.2235E+01
        203     1.6000E+00   3.0850E+01   1.5000E-02   3.1691E+01   3.5410E+01
        203     2.0000E+00   3.0850E+01   1.5000E-02   4.4031E+01   3.6210E+01
        204     0.0000E+00   0.0000E+00   1.5000E-02   0.0000E+00   0.0000E+00
        204     1.0000E-01   4.3500E+00   1.5000E-02   3.0100E-01   4.5270E+00
        204     2.0000E-01   8.3500E+00   1.5000E-02   8.8100E-01   9.0780E+00
        204     3.0000E-01   1.0350E+01   1.5000E-02   1.8590E+00   1.0958E+01
        204     4.0000E-01   1.2400E+01   1.5000E-02   2.9590E+00   1.4017E+01
        204     5.0000E-01   1.3900E+01   1.5000E-02   4.2910E+00   1.5958E+01
        204     7.0000E-01   1.7700E+01   1.5000E-02   7.6950E+00   1.9866E+01
        204     1.0000E+00   1.9500E+01   1.5000E-02   1.3216E+01   2.2417E+01
        204     1.1000E+00   1.9950E+01   1.5000E-02   1.5091E+01   2.3092E+01
        204     1.2000E+00   2.0600E+01   1.5000E-02   1.7230E+01   2.4035E+01
        204     1.3000E+00   2.1600E+01   1.5000E-02   1.9377E+01   2.5271E+01
        204     1.4000E+00   2.2300E+01   1.5000E-02   2.1528E+01   2.6202E+01
        204     1.5000E+00   2.3200E+01   1.5000E-02   2.3841E+01   2.7335E+01
        204     1.6000E+00   2.5150E+01   1.5000E-02   2.6195E+01   2.9500E+01
        204     2.0000E+00   2.5150E+01   1.5000E-02   3.6255E+01   3.0300E+01
        205     0.0000E+00   0.0000E+00   1.5000E-02   0.0000E+00   0.0000E+00
        205     1.0000E-01   3.7000E+00   1.5000E-02   2.1700E-01   3.8620E+00
        205     2.0000E-01   9.2500E+00   1.5000E-02   7.2100E-01   1.0333E+01
        205     3.0000E-01   1.2650E+01   1.5000E-02   1.8320E+00   1.3792E+01
        205     4.0000E-01   1.4800E+01   1.5000E-02   3.1620E+00   1.6372E+01
        205     5.0000E-01   1.7200E+01   1.5000E-02   4.5100E+00   1.8248E+01
        205     7.0000E-01   1.7750E+01   1.5000E-02   7.7490E+00   1.9896E+01
        205     1.0000E+00   1.8450E+01   1.5000E-02   1.3301E+01   2.1396E+01
        205     1.0750E+00   1.8650E+01   1.5000E-02   1.4912E+01   2.1872E+01
        205     1.1000E+00   1.8700E+01   1.5000E-02   1.5477E+01   2.1975E+01
        205     1.2000E+00   1.8950E+01   1.5000E-02   1.7367E+01   2.2529E+01
        205     1.3000E+00   1.9250E+01   1.5000E-02   1.9348E+01   2.3109E+01
        205     1.4000E+00   1.9550E+01   1.5000E-02   2.1245E+01   2.3631E+01
        205     1.5000E+00   2.0500E+01   1.5000E-02   2.3271E+01   2.4865E+01
        205     1.7500E+00   2.0500E+01   1.5000E-02   2.8396E+01   2.5365E+01
        205     2.0000E+00   2.0500E+01   1.5000E-02   3.3521E+01   2.5865E+01
        206     0.0000E+00   0.0000E+00   1.5000E-02   0.0000E+00   0.0000E+00
        206     1.0000E-01   3.5500E+00   1.5000E-02   2.0600E-01   3.7120E+00
        206     2.0000E-01   5.7000E+00   1.5000E-02   6.8400E-01   6.0690E+00
        206     3.0000E-01   8.3500E+00   1.5000E-02   1.3870E+00   8.9270E+00
        206     4.0000E-01   1.0500E+01   1.5000E-02   2.3270E+00   1.1283E+01
        206     5.0000E-01   1.2650E+01   1.5000E-02   3.4820E+00   1.3643E+01
        206     7.0000E-01   1.6400E+01   1.5000E-02   6.4060E+00   1.7814E+01
        206     1.0000E+00   2.0400E+01   1.5000E-02   1.2019E+01   2.3270E+01
        206     1.1000E+00   2.1200E+01   1.5000E-02   1.3986E+01   2.4281E+01
        206     1.2000E+00   2.2150E+01   1.5000E-02   1.6272E+01   2.5464E+01
        206     1.3000E+00   2.2850E+01   1.5000E-02   1.8429E+01   2.6368E+01
        206     1.4000E+00   2.3600E+01   1.5000E-02   2.0810E+01   2.7373E+01
        206     1.5000E+00   2.4600E+01   1.5000E-02   2.3210E+01   2.8588E+01
        206     1.6000E+00   2.5600E+01   1.5000E-02   2.5780E+01   2.9820E+01
        206     2.0000E+00   2.5600E+01   1.5000E-02   3.6020E+01   3.0620E+01
        207     0.0000E+00   0.0000E+00   1.5000E-02   0.0000E+00   0.0000E+00
        207     1.0000E-01   6.3500E+00   1.5000E-02   3.8600E-01   6.5510E+00
        207     2.0000E-01   1.5400E+01   1.5000E-02   1.5000E+00   1.5806E+01
        207     3.0000E-01   1.7550E+01   1.5000E-02   3.1450E+00   1.8165E+01
        207     4.0000E-01   2.1200E+01   1.5000E-02   5.0540E+00   2.2013E+01
        207     5.0000E-01   2.6500E+01   1.5000E-02   7.5170E+00   3.0389E+01
        207     7.0000E-01   2.4900E+01   1.5000E-02   1.1840E+01   2.9114E+01
        207     1.0000E+00   2.3850E+01   1.5000E-02   1.8687E+01   2.6116E+01
        207     1.1000E+00   2.4450E+01   1.5000E-02   2.1042E+01   2.6964E+01
        207     1.1750E+00   2.8700E+01   1.5000E-02   2.3080E+01   3.1408E+01
        207     1.4250E+00   2.8700E+01   1.5000E-02   3.0255E+01   3.1908E+01
        207     1.6750E+00   2.8700E+01   1.5000E-02   3.7430E+01   3.2408E+01
        207     1.9250E+00   2.8700E+01   1.5000E-02   4.4605E+01   3.2908E+01
        208     0.0000E+00   0.0000E+00   1.5000E-02   0.0000E+00   0.0000E+00
        208     1.0000E-01   3.0000E+00   1.5000E-02   1.9200E-01   3.1730E+00
        208     2.0000E-01   6.8500E+00   1.5000E-02   5.9600E-01   7.2350E+00
        208     3.0000E-01   1.0700E+01   1.5000E-02   1.4200E+00   1.2608E+01
        208     4.0000E-01   1.6950E+01   1.5000E-02   2.7900E+00   1.7990E+01
        208     5.0000E-01   1.7450E+01   1.5000E-02   4.5830E+00   1.9723E+01
        208     7.0000E-01   1.7900E+01   1.5000E-02   8.0580E+00   2.1044E+01
        208     1.0000E+00   1.8650E+01   1.5000E-02   1.3175E+01   2.1265E+01
        208     1.1000E+00   1.8950E+01   1.5000E-02   1.5373E+01   2.1869E+01
        208     1.2000E+00   1.9400E+01   1.5000E-02   1.7319E+01   2.2593E+01
        208     1.2500E+00   1.9800E+01   1.5000E-02   1.8227E+01   2.3090E+01
        208     1.3000E+00   2.0550E+01   1.5000E-02   1.9351E+01   2.3974E+01
        208     1.5500E+00   2.0550E+01   1.5000E-02   2.4488E+01   2.4474E+01
        208     1.8000E+00   2.0550E+01   1.5000E-02   2.9626E+01   2.4974E+01
        208     2.0500E+00   2.0550E+01   1.5000E-02   3.4764E+01   2.5474E+01
        209     0.0000E+00   0.0000E+00   1.5000E-02   0.0000E+00   0.0000E+00
        209     1.0000E-01   1.3000E+00   1.5000E-02   7.5000E-02   1.4800E+00
        209     2.0000E-01   1.9000E+00   1.5000E-02   2.2100E-01   2.2840E+00
        209     3.0000E-01   2.8000E+00   1.5000E-02   4.6300E-01   3.6000E+00
        209     4.0000E-01   4.5500E+00   1.5000E-02   8.4900E-01   5.5610E+00
        209     5.0000E-01   5.9500E+00   1.5000E-02   1.3780E+00   8.1340E+00
        209     7.0000E-01   1.7600E+01   1.5000E-02   3.9930E+00   1.9324E+01
        209     1.0000E+00   1.9250E+01   1.5000E-02   9.4270E+00   2.1671E+01
        209     1.1000E+00   1.9750E+01   1.5000E-02   1.1546E+01   2.4574E+01
        209     1.2000E+00   2.0200E+01   1.5000E-02   1.3500E+01   2.5453E+01
        209     1.3000E+00   2.0700E+01   1.5000E-02   1.5548E+01   2.3872E+01
        209     1.4000E+00   2.1250E+01   1.5000E-02   1.7588E+01   2.4657E+01
        209     1.5000E+00   2.2300E+01   1.5000E-02   1.9837E+01   2.5939E+01
        209     1.7500E+00   2.2300E+01   1.5000E-02   2.5412E+01   2.6439E+01
        209     2.0000E+00   2.2300E+01   1.5000E-02   3.0987E+01   2.6939E+01
        210     0.0000E+00   0.0000E+00   1.5000E-02   0.0000E+00   0.0000E+00
        210     1.0000E-01   4.2000E+00   1.5000E-02   2.4000E-01   4.3680E+00
        210     2.0000E-01   7.2000E+00   1.5000E-02   7.6200E-01   7.9220E+00
        210     3.0000E-01   1.0550E+01   1.5000E-02   1.6200E+00   1.1699E+01
        210     4.0000E-01   1.4000E+01   1.5000E-02   2.8660E+00   1.4834E+01
        210     5.0000E-01   1.4500E+01   1.5000E-02   4.2940E+00   1.5576E+01
        210     7.0000E-01   1.5850E+01   1.5000E-02   7.3430E+00   1.7911E+01
        210     8.2500E-01   1.6700E+01   1.5000E-02   9.3520E+00   1.9062E+01
        210     1.0000E+00   1.9900E+01   1.5000E-02   1.2578E+01   2.2721E+01
        210     1.2500E+00   1.9900E+01   1.5000E-02   1.7553E+01   2.3221E+01
        210     1.5000E+00   1.9900E+01   1.5000E-02   2.2528E+01   2.3721E+01
        210     1.7500E+00   1.9900E+01   1.5000E-02   2.7503E+01   2.4221E+01
        210     2.0000E+00   1.9900E+01   1.5000E-02   3.2478E+01   2.4721E+01
        211     0.0000E+00   0.0000E+00   1.5000E-02   0.0000E+00   0.0000E+00
        211     1.0000E-01   3.4500E+00   1.5000E-02   1.9700E-01   3.6160E+00
        211     2.0000E-01   4.8500E+00   1.5000E-02   5.9300E-01   5.2100E+00
        211     3.0000E-01   6.4000E+00   1.5000E-02   1.1720E+00   6.9790E+00
        211     4.0000E-01   1.1850E+01   1.5000E-02   1.9990E+00   1.2944E+01
        211     5.0000E-01   1.3000E+01   1.5000E-02   3.2300E+00   1.4339E+01
        211     6.0000E-01   1.3600E+01   1.5000E-02   4.5940E+00   1.5187E+01
        211     7.0000E-01   1.4100E+01   1.5000E-02   5.9990E+00   1.7284E+01
        211     1.0000E+00   1.5650E+01   1.5000E-02   1.0375E+01   1.8195E+01
        211     1.1000E+00   1.6450E+01   1.5000E-02   1.2018E+01   1.9223E+01
        211     1.3500E+00   1.6450E+01   1.5000E-02   1.6131E+01   1.9723E+01
        211     1.6000E+00   1.6450E+01   1.5000E-02   2.0243E+01   2.0223E+01
        211     1.8500E+00   1.6450E+01   1.5000E-02   2.4355E+01   2.0723E+01
        211     2.1000E+00   1.6450E+01   1.5000E-02   2.8468E+01   2.1223E+01
 XMD -- LINEAR SOLUTION BY XMD PACKAGE VERSION 1.30
     BY MOTOMU IBARAKI, OHIO STATE UNIVERSITY, COLOMBUS, OH
                 INPUT READ FROM UNIT 32
 ACCELERATION METHOD                    (IACL) =         2
 NODE ORDERING FLAG                   (NORDER) =         0
 LEVEL OF FILL                         (LEVEL) =         7
 MAXIMUM NUMBER OF ORTHOGONALIZATIONS  (NORTH) =         7
 INDEX FOR USING REDUCED SYSTEM      (IREDSYS) =         0
 RESID. REDUCTION CONVERGE CRITERION  (RRCTOL) =  0.000000E+00
 INDEX FOR USING DROP TOLERANCE     (IDROPTOL) =         1
 DROP TOLERANCE VALUE                  (EPSRN) =  0.500000E-02
 CONVERGENCE CRITERIA OF           (HCLOSEXMD) =  0.100000E-02
 MAX. NUMBER OF LINEAR ITERATIONS  (MXITERXMD) =       100

 
 SOLVING FOR HEAD 
                                                   Max.-Head-Change                         Max.-Flux-Residual
  Residual-Control   Outer-Iter.   Inner-Iter.     Column Row Layer    Maximum-Head-Change  Column Row Layer    Maximum-Flux-Residual          L2-NORM 
          0                 1         100            20  188     1      -0.3474099943E+04      29  168    1        -0.2279251136E+01      0.7749612824E+01
          0                 2         100            28    2     2       0.3009757115E+10      20  188    1         0.2725692468E+04      0.2728883401E+04
          0                 3         100            52  146     1      -0.6233694754E+16      31  166    1         0.2893293424E+08      0.3171988212E+08
          0                 4         100            48  177     1       0.6795219505E+22      52  146    1         0.3932651398E+13      0.1045082653E+14
          0                 5         100            15   81     2       0.4732328232E+29      60  128    1         0.1025945711E+20      0.2378859595E+20
          0                 6         100            15   55     1      -0.1406197340E+47      15   81    1         0.3726030572E+26      0.6902905205E+26
          0                 7         100            13   75     1       0.1445708495E+63      15   55    1         0.1223378247E+44      0.1730118114E+44
          0                 8         100            34   49     1      -0.2444851166E+90      12   76    1         0.9543818428E+59      0.1489199786E+60
          0                 9         100            34   74     1      -0.2310045168+110      41    1    1         0.2416019253E+87      0.3898818349E+87
          0                10         100            25   61     1       0.2228112427+120      33   73    1         0.1119941355+108      0.1624626794+108
                                                   Max.-Head-Change                         Max.-Flux-Residual
  Residual-Control   Outer-Iter.   Inner-Iter.     Column Row Layer    Maximum-Head-Change  Column Row Layer    Maximum-Flux-Residual          L2-NORM 
          0                11         100             9   26     1      -0.1141357355+132      25   61    1        -0.1131086433+117      0.1908455617+117
          0                12         100            55   99     1       0.8464699389+154      39  116    1         0.3987927511+129      0.6897519124+129
          0                13          10             1    1     1       0.0000000000E+00      55   99    1        -0.3868723497+151      0.6287446722+151

    ------------------------------------------------
       NWT REQUIRED           13 OUTER ITERATIONS 
       AND A TOTAL OF       1210 INNER ITERATIONS.
    ------------------------------------------------

 OUTPUT CONTROL FOR STRESS PERIOD    1   TIME STEP    1
    SAVE HEAD FOR ALL LAYERS
    SAVE BUDGET
 UBDSV2 SAVING "   CONSTANT HEAD" ON UNIT   1 AT TIME STEP  1, STRESS PERIOD   1
 UBDSV1 SAVING "FLOW RIGHT FACE " ON UNIT   1 AT TIME STEP  1, STRESS PERIOD   1
 UBDSV1 SAVING "FLOW FRONT FACE " ON UNIT   1 AT TIME STEP  1, STRESS PERIOD   1
 UBDSV1 SAVING "FLOW LOWER FACE " ON UNIT   1 AT TIME STEP  1, STRESS PERIOD   1

 HEAD WILL BE SAVED ON UNIT   51 AT END OF TIME STEP    1, STRESS PERIOD    1
1
  VOLUMETRIC BUDGET FOR ENTIRE MODEL AT END OF TIME STEP    1, STRESS PERIOD   1
  ------------------------------------------------------------------------------

     CUMULATIVE VOLUMES      L**3       RATES FOR THIS TIME STEP      L**3/T
     ------------------                 ------------------------

           IN:                                      IN:
           ---                                      ---
             STORAGE =           0.0000               STORAGE =           0.0000
       CONSTANT HEAD =              NaN         CONSTANT HEAD =              NaN
      STREAM LEAKAGE =           0.0000        STREAM LEAKAGE =           0.0000

            TOTAL IN =              NaN              TOTAL IN =              NaN

          OUT:                                     OUT:
          ----                                     ----
             STORAGE =           0.0000               STORAGE =           0.0000
       CONSTANT HEAD =           0.0000         CONSTANT HEAD =           0.0000
      STREAM LEAKAGE =              NaN        STREAM LEAKAGE =              NaN

           TOTAL OUT =              NaN             TOTAL OUT =              NaN

            IN - OUT =              NaN              IN - OUT =              NaN

 PERCENT DISCREPANCY =            NaN     PERCENT DISCREPANCY =            NaN






         TIME SUMMARY AT END OF TIME STEP    1 IN STRESS PERIOD    1
                    SECONDS     MINUTES      HOURS       DAYS        YEARS
                    -----------------------------------------------------------
   TIME STEP LENGTH  1.0000     1.66667E-02 2.77778E-04 1.15741E-05 3.16881E-08
 STRESS PERIOD TIME  1.0000     1.66667E-02 2.77778E-04 1.15741E-05 3.16881E-08
         TOTAL TIME  1.0000     1.66667E-02 2.77778E-04 1.15741E-05 3.16881E-08
1

 Run end date and time (yyyy/mm/dd hh:mm:ss): 2017/09/20 15:40:24
 Elapsed run time:  2.531 Seconds

